#======================================================================

# Note: Crystal region of polyethylene oxide
# Common_name: Perfect crystal

#----------------------------------------------------------------------

data_1
_audit_creation_method   'vasp2cif'
_cell_length_a    7.71213308094
_cell_length_b    12.131665371
_cell_length_c    18.9993786938
_cell_angle_alpha    90.0
_cell_angle_beta    126.682574802
_cell_angle_gamma    90.0

_symmetry_space_group_name_H-M    'P 1'
loop_
_atom_site_label
_atom_site_type_symbol
_atom_site_fract_x
_atom_site_fract_y
_atom_site_fract_z
_atom_site_occupancy
C1   C   0.300082797598883   0.761647309624315   0.412101256568796   1.0
C2   C   0.800082753207583   0.738352726966937   0.412101256568796   1.0
C3   C   0.199917240445735   0.261647309620486   0.587898714959081   1.0
C4   C   0.526097482038807   0.139885207466740   0.453731252241830   1.0
C5   C   0.473902444994721   0.860114838169764   0.546268719349015   1.0
C6   C   0.973902504330120   0.639885198344807   0.546268719349015   1.0
C7   C   0.026097548666137   0.360114801662860   0.453731252241830   1.0
C8   C   0.569092671619863   0.052431372501729   0.409890021429646   1.0
C9   C   0.430907340135867   0.947568618380174   0.590109920120938   1.0
C10   C   0.930907325309775   0.552431418211086   0.590109920120938   1.0
C11   C   0.069092641104341   0.447568618376344   0.409890021429646   1.0
C12   C   0.978044517844658   0.057409473850463   0.367726827454710   1.0
C13   C   0.021955458752380   0.942590512430208   0.632273174176404   1.0
C14   C   0.521955458708902   0.557409487581289   0.632273174176404   1.0
C15   C   0.478044532670744   0.442590512426378   0.367726827454710   1.0
C16   C   0.819519234173534   0.006402039072079   0.379358031048760   1.0
C17   C   0.180480814010537   0.993597980337427   0.620642000559648   1.0
C18   C   0.680480813967058   0.506402056253826   0.620642000559648   1.0
C19   C   0.699917225619650   0.238352690383351   0.587898714959081   1.0
C20   C   0.003186986195111   0.175405255629322   0.273961499738867   1.0
C21   C   0.349726301462077   0.276119346271933   0.685854116590612   1.0
C22   C   0.150273662509342   0.776119419358594   0.314145855000241   1.0
C23   C   0.426237002242736   0.064060456329557   0.885095310767895   1.0
C24   C   0.573763020975804   0.935939552803873   0.114904660759983   1.0
C25   C   0.073762984000652   0.564060483710691   0.114904660759983   1.0
C26   C   0.926237002199258   0.435939552800043   0.885095310767895   1.0
C27   C   0.585825630103557   0.009150748219696   0.875857710286269   1.0
C28   C   0.414174462428335   0.990849259763429   0.124142321322132   1.0
C29   C   0.914174447726474   0.509150740248074   0.124142321322132   1.0
C30   C   0.085825630147035   0.490849259759599   0.875857710286269   1.0
C31   C   0.901928317934328   0.135529357704776   0.807396792161533   1.0
C32   C   0.098071696818174   0.864470633177135   0.192603194417963   1.0
C33   C   0.598071696774703   0.635529403414125   0.192603194417963   1.0
C34   C   0.401928317977813   0.364470633173290   0.807396792161533   1.0
C35   C   0.828502113230300   0.047317054869666   0.839779548983401   1.0
C36   C   0.171497966880942   0.952682995444754   0.160220452584738   1.0
C37   C   0.671497922489635   0.547317041146506   0.160220452584738   1.0
C38   C   0.328502054019118   0.452682958861168   0.839779548983401   1.0
C39   C   0.849726368126674   0.223880653731897   0.685854116590612   1.0
C40   C   0.650273618118035   0.723880617155977   0.314145855000241   1.0
C41   C   0.996813007458215   0.824594726050123   0.726038471789010   1.0
C42   C   0.319519219434404   0.493597943753841   0.379358031048760   1.0
C43   C   0.503187015803803   0.324594726046293   0.273961499738867   1.0
C44   C   0.496813037104175   0.675405237381625   0.726038471789010   1.0
C45   C   0.902196724680415   0.301659006589851   0.972483426815138   1.0
C46   C   0.097803334449139   0.698341066577321   0.027516595409622   1.0
C47   C   0.597803310430514   0.801658970013932   0.027516595409622   1.0
C48   C   0.402196754289122   0.198341011742201   0.972483426815138   1.0
C49   C   0.954125786893385   0.769463317871008   0.947656882875336   1.0
C50   C   0.045874271884415   0.230536663808436   0.052343156290355   1.0
C51   C   0.545874271965161   0.269463336118704   0.052343156290355   1.0
C52   C   0.373691345260077   0.245425432656631   0.199184035590719   1.0
C53   C   0.626308681913088   0.754574622182325   0.800815981029039   1.0
C54   C   0.126308711521780   0.745425414332246   0.800815981029039   1.0
C55   C   0.873691345216599   0.254574567347206   0.199184035590719   1.0
C56   C   0.454125757247425   0.730536645560740   0.947656882875336   1.0
H57   H   0.888970999306274   0.473971849384171   0.554541024585575   1.0
H58   H   0.075076427301710   0.537271710036308   0.657177771574503   1.0
H59   H   0.924923608549982   0.462728289894677   0.342822230056619   1.0
H60   H   0.611029036289445   0.973971849388008   0.445458976982564   1.0
H61   H   0.388971014132359   0.026028163196351   0.554541024585575   1.0
H62   H   0.111029051115530   0.526028150623496   0.445458976982564   1.0
H63   H   0.740745694439951   0.806054651415948   0.430892637884916   1.0
H64   H   0.318693194040300   0.028906446433311   0.682626237985815   1.0
H65   H   0.818693164431608   0.471093566147211   0.682626237985815   1.0
H66   H   0.181306900897027   0.528906433860463   0.317373763582331   1.0
H67   H   0.259254269523929   0.193945293760436   0.569107333642947   1.0
H68   H   0.575076427258232   0.962728253395447   0.657177771574503   1.0
H69   H   0.240745724048644   0.693945312015806   0.430892637884916   1.0
H70   H   0.681306915760381   0.971093529571284   0.317373763582331   1.0
H71   H   0.424923578904021   0.037271719234923   0.342822230056619   1.0
H72   H   0.626572192935662   0.875880337636850   0.556311152405783   1.0
H73   H   0.984118053357157   0.720948936423227   0.574199776531486   1.0
H74   H   0.759254299169889   0.306054687991868   0.569107333642947   1.0
H75   H   0.115630447562147   0.696761529036152   0.280896558273241   1.0
H76   H   0.615630447642893   0.803238507555108   0.280896558273241   1.0
H77   H   0.384369630230616   0.196761474201033   0.719103473335167   1.0
H78   H   0.535651939893825   0.259382960101235   0.565575354336175   1.0
H79   H   0.464348125434817   0.740617003326683   0.434424647231964   1.0
H80   H   0.015881923151603   0.279051118415730   0.425800225036653   1.0
H81   H   0.964348095826111   0.759382960105064   0.434424647231964   1.0
H82   H   0.035651910372089   0.240617039902602   0.565575354336175   1.0
H83   H   0.373427874630707   0.124119644042601   0.443688819122095   1.0
H84   H   0.126572178196525   0.624119625794897   0.556311152405783   1.0
H85   H   0.873427845022007   0.375880337633013   0.443688819122095   1.0
H86   H   0.515881945306880   0.220948881588107   0.425800225036653   1.0
H87   H   0.484118082878894   0.779051100168033   0.574199776531486   1.0
H88   H   0.884369630187138   0.303238525802797   0.719103473335167   1.0
H89   H   0.801580830216594   0.396205061959542   0.822293356989512   1.0
H90   H   0.860858043961372   0.824909944442098   0.959078518061851   1.0
H91   H   0.698419226602539   0.896205025383615   0.177706659630246   1.0
H92   H   0.557058001062863   0.390187742120112   0.823650563417466   1.0
H93   H   0.442942011327688   0.609812257887555   0.176349453202299   1.0
H94   H   0.942942055756262   0.890187742123949   0.176349453202299   1.0
H95   H   0.057058001106341   0.109812248757955   0.823650563417466   1.0
H96   H   0.281847349653304   0.527119604778733   0.799445798344344   1.0
H97   H   0.718152668965551   0.472880395228934   0.200554233264057   1.0
H98   H   0.964638230858441   0.025143090648086   0.907631083097876   1.0
H99   H   0.218152728139465   0.027119607075512   0.200554233264057   1.0
H100   H   0.425627049101635   0.286104880121300   0.840806935289542   1.0
H101   H   0.574373037237905   0.713895083306610   0.159193081267240   1.0
H102   H   0.074372992809337   0.786104880125137   0.159193081267240   1.0
H103   H   0.925627019492936   0.213895119882530   0.840806935289542   1.0
H104   H   0.229074717741042   0.517108101867315   0.940547130103703   1.0
H105   H   0.770925248138042   0.482891898140359   0.059452863970115   1.0
H106   H   0.781847408864479   0.972880395232771   0.799445798344344   1.0
H107   H   0.198419233975208   0.603794938048132   0.177706659630246   1.0
H108   H   0.035361806820184   0.974856971092713   0.092368941016204   1.0
H109   H   0.464638290156571   0.474856897929364   0.907631083097876   1.0
H110   H   0.301580800570626   0.103794956295829   0.822293356989512   1.0
H111   H   0.849676186306311   0.498056889329419   0.900396380767617   1.0
H112   H   0.150323840316410   0.501943110678248   0.099603643346455   1.0
H113   H   0.650323881018274   0.998056852753500   0.099603643346455   1.0
H114   H   0.902809656282145   0.941697679127515   0.429094045499738   1.0
H115   H   0.349676186349789   0.001943124401407   0.900396380767617   1.0
H116   H   0.535361836466144   0.525143065498547   0.092368941016204   1.0
H117   H   0.504926325057689   0.310081426665505   0.705311313124710   1.0
H118   H   0.995073668603169   0.810081426669342   0.294688658466143   1.0
H119   H   0.004926309858931   0.189918573338325   0.705311313124710   1.0
H120   H   0.008484950675346   0.562135210509908   0.833016367724326   1.0
H121   H   0.991515105974749   0.437864789497766   0.166983648832456   1.0
H122   H   0.491515106018227   0.062135196779074   0.166983648832456   1.0
H123   H   0.508484950756092   0.937864826081352   0.833016367724326   1.0
H124   H   0.495073683466522   0.689918536762406   0.294688658466143   1.0
H125   H   0.097190409134768   0.058302398564209   0.570905956131377   1.0
H126   H   0.729074777076441   0.982891861564433   0.940547130103703   1.0
H127   H   0.402809641543016   0.558302320883989   0.429094045499738   1.0
H128   H   0.681113124089315   0.822627175321678   0.780377709672941   1.0
H129   H   0.318886940740718   0.177372806357766   0.219622321935475   1.0
H130   H   0.639141984510552   0.324909944438268   0.040921457244671   1.0
H131   H   0.360858073570064   0.675090092072473   0.959078518061851   1.0
H132   H   0.270925292653573   0.017108161295994   0.059452863970115   1.0
H133   H   0.139141977100614   0.175090073817103   0.040921457244671   1.0
H134   H   0.448124398582692   0.319227588277663   0.065041196227000   1.0
H135   H   0.551875586480378   0.680772448233078   0.934958790352496   1.0
H136   H   0.181113124132793   0.677372788110070   0.780377709672941   1.0
H137   H   0.051875586399632   0.819227588281493   0.934958790352496   1.0
H138   H   0.280791596539864   0.249996688836461   0.917543165159508   1.0
H139   H   0.597190364619237   0.441697679123678   0.570905956131377   1.0
H140   H   0.219208504765405   0.749996652260542   0.082456896426173   1.0
H141   H   0.780791537365943   0.250003311167376   0.917543165159508   1.0
H142   H   0.320248360124246   0.135509126602862   0.984681356147611   1.0
H143   H   0.679751699262567   0.864490845950819   0.015318662361473   1.0
H144   H   0.179751684523438   0.635509190640441   0.015318662361473   1.0
H145   H   0.820248360204992   0.364490882526738   0.984681356147611   1.0
H146   H   0.948124428228653   0.180772429977708   0.065041196227000   1.0
H147   H   0.818886953740716   0.322627193646063   0.219622321935475   1.0
H148   H   0.719208523231245   0.750003311171206   0.082456896426173   1.0
H149   H   0.524666243427426   0.787741925683882   0.818180843918654   1.0
H150   H   0.475333783745732   0.212258056072251   0.181819172701104   1.0
H151   H   0.054166063227754   0.993664012885510   0.353737320270916   1.0
H152   H   0.945833920734422   0.006336005757127   0.646262681297223   1.0
H153   H   0.554166113122164   0.506335969173534   0.353737320270916   1.0
H154   H   0.105980234379700   0.098674741749946   0.429079257281707   1.0
H155   H   0.894019841007633   0.901325249131958   0.570920804366956   1.0
H156   H   0.394019855833726   0.598674750879546   0.570920804366956   1.0
H157   H   0.605980234460446   0.401325249128121   0.429079257281707   1.0
H158   H   0.057858439686584   0.104793876314218   0.255366909293066   1.0
H159   H   0.445833913324485   0.493664030834133   0.646262681297223   1.0
H160   H   0.442141583451210   0.604793876318048   0.744633062234811   1.0
H161   H   0.557858424984722   0.395206123689618   0.255366909293066   1.0
H162   H   0.143670676368508   0.219765244330048   0.328578635209070   1.0
H163   H   0.856329307469444   0.780234737349403   0.671421366359070   1.0
H164   H   0.356329300059507   0.719765226082352   0.671421366359070   1.0
H165   H   0.643670720797076   0.280234755673789   0.328578635209070   1.0
H166   H   0.975333754137040   0.287741943931586   0.181819172701104   1.0
H167   H   0.942141620550586   0.895206123693455   0.744633062234811   1.0
H168   H   0.024666243470904   0.712258110907378   0.818180843918654   1.0
O169   O   0.745079460040678   0.091138194102605   0.409062671562431   1.0
O170   O   0.254920531126466   0.908861796779298   0.590937330005708   1.0
O171   O   0.754920538536403   0.591138203232205   0.590937330005708   1.0
O172   O   0.245079445301542   0.408861796775461   0.409062671562431   1.0
O173   O   0.539371780958753   0.144822012295123   0.954225194806867   1.0
O174   O   0.690206285275835   0.197322579424764   0.125448247471475   1.0
O175   O   0.960628296871285   0.644821994047426   0.045774836801534   1.0
O176   O   0.039371721747571   0.355177969380485   0.954225194806867   1.0
O177   O   0.309793708465769   0.802677402254687   0.874551724119378   1.0
O178   O   0.809793738111729   0.697322561177060   0.874551724119378   1.0
O179   O   0.366732492001873   0.363545297371566   0.297318543877424   1.0
O180   O   0.460628296790539   0.855177969384322   0.045774836801534   1.0
O181   O   0.633267531304945   0.636454739215857   0.702681427713429   1.0
O182   O   0.752661380321726   0.149406173639413   0.713377540711015   1.0
O183   O   0.866732462393180   0.136454711758034   0.297318543877424   1.0
O184   O   0.198691935287350   0.361721641999779   0.546776605730187   1.0
O185   O   0.801308144823892   0.638278321428132   0.453223395837952   1.0
O186   O   0.301308070705879   0.861721642003616   0.453223395837952   1.0
O187   O   0.698691890896050   0.138278348801599   0.546776605730187   1.0
O188   O   0.252661409930418   0.350593808112883   0.713377540711015   1.0
O189   O   0.747338697508312   0.649406228474540   0.286622490897386   1.0
O190   O   0.247338697551790   0.850593808116720   0.286622490897386   1.0
O191   O   0.150579576787308   0.412625442992486   0.838043658936321   1.0
O192   O   0.849420539329948   0.587374556938492   0.161956357683444   1.0
O193   O   0.349420479994549   0.912625406416566   0.161956357683444   1.0
O194   O   0.650579517489177   0.087374566137115   0.838043658936321   1.0
O195   O   0.133267501783202   0.863545224215891   0.702681427713429   1.0
O196   O   0.190206322213726   0.302677402250850   0.125448247471475   1.0


# Number_of_total_atoms: 196
# Number_of_atom_type: 3
# Name_of_each_atom: C H O
# Number_of_each_atom: 56 112 28
# Created_by: Lihua Chen (lihua.chen@mse.gatech.edu)
# Tool: VASP
# K-points: 3 1 1
# Pseudopotential: PBE-HSE06
# Material_class: MC_Pol
# Geometry_class: GC_cry
# Bandgap_(eV): 6.94
