#======================================================================

# Note: Crystal region of polypropylene oxide
# Common_name: Perfect crystal

#----------------------------------------------------------------------

data_1
_audit_creation_method   'vasp2cif'
_cell_length_a    10.9971102131
_cell_length_b    5.45898156044
_cell_length_c    5.4758097314
_cell_angle_alpha    90.0
_cell_angle_beta    90.0
_cell_angle_gamma    90.0

_symmetry_space_group_name_H-M    'P 1'
loop_
_atom_site_label
_atom_site_type_symbol
_atom_site_fract_x
_atom_site_fract_y
_atom_site_fract_z
_atom_site_occupancy
C1   C   0.436125772923781   0.667679300237708   0.520755849586344   1.0
C2   C   0.563874264235743   0.167679300297550   0.979244139719960   1.0
C3   C   0.063874236356369   0.332320715600055   0.020755892586344   1.0
C4   C   0.793262330871435   0.623772910101160   0.771406594433905   1.0
C5   C   0.706737669109110   0.376227089912135   0.271406594316787   1.0
C6   C   0.206737669089655   0.123772933964190   0.728593405737264   1.0
C7   C   0.936125698702000   0.832320668066814   0.479244150467707   1.0
C8   C   0.293262330929807   0.876227058203362   0.228593416430961   1.0
C9   C   0.647269770084705   0.388675415447906   0.019798153453628   1.0
C10   C   0.147269788664467   0.111324592470979   0.980201835789615   1.0
C11   C   0.352730229876386   0.888675415521043   0.480201857294119   1.0
C12   C   0.852730229895840   0.611324552783479   0.519798164201376   1.0
H13   H   0.608870020479557   0.998101617326498   0.036048084840296   1.0
H14   H   0.891129979500988   0.001898351037859   0.536048070182638   1.0
H15   H   0.108869974078779   0.501898382746646   0.963951972871413   1.0
H16   H   0.391130016602155   0.498101617266663   0.463951929871413   1.0
H17   H   0.959761134740560   0.847302642459148   0.286050811332963   1.0
H18   H   0.860681146028135   0.670568697374243   0.911217416733649   1.0
H19   H   0.040238869889791   0.347302690125368   0.213949231721088   1.0
H20   H   0.905353165293782   0.440777299441486   0.505347889326245   1.0
H21   H   0.459761060557682   0.652697389143249   0.713949188721088   1.0
H22   H   0.020083170645947   0.810473555138458   0.583802180626535   1.0
H23   H   0.479916792213970   0.189526444874836   0.083802159067979   1.0
H24   H   0.540238865239985   0.152697357421175   0.786050796441074   1.0
H25   H   0.594646834686763   0.559222700571816   0.005347900019935   1.0
H26   H   0.520083133583697   0.689526413166064   0.416197840868961   1.0
H27   H   0.405353128153706   0.059222684674204   0.494652110727813   1.0
H28   H   0.723614753694640   0.767757784673940   0.770064881634347   1.0
H29   H   0.776385246285905   0.232242246988292   0.270064881697408   1.0
H30   H   0.276385264787855   0.267757752951866   0.729935118356643   1.0
H31   H   0.223614735153781   0.732242247061428   0.229935096798087   1.0
H32   H   0.979916801533037   0.310473618496175   0.916197819364456   1.0
H33   H   0.639318853952410   0.329431334287989   0.411217435409327   1.0
H34   H   0.139318835411551   0.170568673630889   0.588782607527612   1.0
H35   H   0.360681183129294   0.829431270930279   0.088782564581663   1.0
H36   H   0.094646890387146   0.940777331163559   0.994652153727813   1.0
O37   O   0.738107567606008   0.387473266093707   0.824602969370410   1.0
O38   O   0.761892432374538   0.612526670488741   0.324602969253299   1.0
O39   O   0.261892432432909   0.887473297815781   0.675397030800760   1.0
O40   O   0.238107567586553   0.112526718021982   0.175397036089045   1.0

# Number_of_total_atoms: 40
# Number_of_atom_type: 3
# Name_of_each_atom: C H O
# Number_of_each_atom: 12 24 4
# Created_by: Lihua Chen (lihua.chen@mse.gatech.edu)
# Tool: VASP
# K-points: 1 4 5
# Pseudopotential: PBE-HSE06
# Material_class: MC_Pol
# Geometry_class: GC_cry
# Bandgap_(eV): 6.38


