#======================================================================

# Note: Crystal region of polyketone
# Common_name: Perfect crystal

#----------------------------------------------------------------------

data_1
_audit_creation_method   'vasp2cif'
_cell_length_a    7.22792001033
_cell_length_b    4.52934749187
_cell_length_c    7.60918197795
_cell_angle_alpha    90.0
_cell_angle_beta    90.0
_cell_angle_gamma    90.0

_symmetry_space_group_name_H-M    'P 1'
loop_
_atom_site_label
_atom_site_type_symbol
_atom_site_fract_x
_atom_site_fract_y
_atom_site_fract_z
_atom_site_occupancy
C1   C   0.456801581500031   0.548300921834354   0.250000000009905   1.0
C2   C   0.543198418474880   0.451699078186657   0.750000015749670   1.0
C3   C   0.043198420369485   0.048300893567550   0.750000015749670   1.0
C4   C   0.956801611474937   0.951699128302202   0.250000000009905   1.0
C5   C   0.479411776249741   0.593726472749459   0.580930391723122   1.0
C6   C   0.520588253587135   0.406273527271544   0.419069639756401   1.0
C7   C   0.020588231265940   0.093726485449039   0.419069639756401   1.0
C8   C   0.979411776237200   0.906273477177010   0.580930391723122   1.0
C9   C   0.520588253587135   0.406273527271544   0.080930375983357   1.0
C10   C   0.479411776249741   0.593726472749459   0.919069639644121   1.0
C11   C   0.979411776237200   0.906273477177010   0.919069639644121   1.0
C12   C   0.020588231265940   0.093726485449039   0.080930375983357   1.0
H13   H   0.168022553398615   0.141116006755340   0.091515567945038   1.0
H14   H   0.452100387898490   0.190580191027664   0.427787111277517   1.0
H15   H   0.547899612076414   0.809419833993353   0.572212888762117   1.0
H16   H   0.168022553398615   0.141116006755340   0.408484424148753   1.0
H17   H   0.047899612088962   0.690580165933120   0.572212888762117   1.0
H18   H   0.452100387898490   0.190580191027664   0.072212880816274   1.0
H19   H   0.547899612076414   0.809419833993353   0.927787079725334   1.0
H20   H   0.047899612088962   0.690580165933120   0.927787079725334   1.0
H21   H   0.952100387911038   0.309419808877799   0.072212880816274   1.0
H22   H   0.331977461519834   0.641115994055760   0.591515575890881   1.0
H23   H   0.668022568317056   0.358884005755158   0.408484424148753   1.0
H24   H   0.952100387911038   0.309419808877799   0.427787111277517   1.0
H25   H   0.831977461632754   0.858883955660630   0.591515575890881   1.0
H26   H   0.668022568317056   0.358884005755158   0.091515567945038   1.0
H27   H   0.331977461519834   0.641115994055760   0.908484392596570   1.0
H28   H   0.831977461632754   0.858883955660630   0.908484392596570   1.0
O29   O   0.147088939239587   0.265600392966874   0.750000015749670   1.0
O30   O   0.647088894434063   0.234399607148674   0.750000015749670   1.0
O31   O   0.852911075666313   0.734399582054138   0.250000000009905   1.0
O32   O   0.352911075678861   0.765600417872335   0.250000000009905   1.0


# Number_of_total_atoms: 32
# Number_of_atom_type: 3
# Name_of_each_atom: C H O
# Number_of_each_atom: 12 16 4
# Created_by: Lihua Chen (lihua.chen@mse.gatech.edu)
# Tool: VASP
# K-points: 4 6 4
# Pseudopotential: PBE-HSE06
# Material_class: MC_Pol
# Geometry_class: GC_cry
# Bandgap_(eV): 5.39
