#======================================================================

# Note: Crystal region of polycaprolactone 
# Common_name: Perfect crystal

#----------------------------------------------------------------------

data_1
_audit_creation_method   'vasp2cif'
_cell_length_a    6.66683540984
_cell_length_b    4.53822399032
_cell_length_c    17.2157571912
_cell_angle_alpha    90.0191093461
_cell_angle_beta    90.0000905202
_cell_angle_gamma    89.9828037139

_symmetry_space_group_name_H-M    'P 1'
loop_
_atom_site_label
_atom_site_type_symbol
_atom_site_fract_x
_atom_site_fract_y
_atom_site_fract_z
_atom_site_occupancy
C1   C   0.085714107053121   0.047599813695740   0.038583837276811   1.0
C2   C   0.043242010316817   0.082203023032740   0.184726674050729   1.0
C3   C   0.995366781753880   0.143197126410044   0.321037826749709   1.0
C4   C   0.994313277309075   0.103703116654387   0.465302782555973   1.0
C5   C   0.015469903212185   0.077666575100025   0.611478019794355   1.0
C6   C   0.087927197270908   0.027928856807144   0.889488283223457   1.0
C7   C   0.986154302713679   0.921402126984916   0.111479238064476   1.0
C8   C   0.913745017430251   0.971099502789649   0.389474432340400   1.0
C9   C   0.915882661412461   0.951434116774948   0.538576498001184   1.0
C10   C   0.958480528731378   0.916767074969741   0.684693703177103   1.0
C11   C   0.006282358015220   0.855925239383815   0.821002181711314   1.0
C12   C   0.007295384963633   0.895301965813680   0.965285390883253   1.0
C13   C   0.507544350207979   0.603642087271709   0.105845537483340   1.0
C14   C   0.506689824909074   0.643134777241698   0.250117074052937   1.0
C15   C   0.458928387375082   0.582472548992705   0.386426170324768   1.0
C16   C   0.415916501270260   0.547674216396942   0.532536459232645   1.0
C17   C   0.413384165119474   0.527897289862359   0.681639612428327   1.0
C18   C   0.485951347327308   0.577364383590364   0.959666172384743   1.0
C19   C   0.585767185865407   0.451191518332195   0.032525584184931   1.0
C20   C   0.588315418412151   0.471037980258913   0.181634811109490   1.0
C21   C   0.515762935951983   0.421523133678981   0.459658626211834   1.0
C22   C   0.494118918601615   0.395240355100427   0.605833220398900   1.0
C23   C   0.495003413752578   0.355780135144343   0.750087897584308   1.0
C24   C   0.542781384516609   0.416401036367027   0.886404298729545   1.0
O25   O   0.049398734310081   0.026395075877240   0.749060483190576   1.0
O26   O   0.952177969440882   0.972781959487648   0.249059990800553   1.0
O27   O   0.451819384973575   0.526171477103773   0.822074962976444   1.0
O28   O   0.549820243916692   0.472651639781610   0.322068755998636   1.0
O29   O   0.655196111538324   0.202030635194568   0.884392313638529   1.0
O30   O   0.346542742468181   0.796912894382494   0.384457578859561   1.0
O31   O   0.156007258035629   0.296116380240846   0.186714962919545   1.0
O32   O   0.845987803637279   0.702578403747268   0.686649767045537   1.0
H33   H   0.248751404880380   0.027922364924876   0.042942447549159   1.0
H34   H   0.157245685712212   0.170457206489466   0.324945627179510   1.0
H35   H   0.157370120667729   0.085898559435037   0.464256548149130   1.0
H36   H   0.178441713101996   0.061997075488598   0.606088990859533   1.0
H37   H   0.252056688664851   0.025791533309786   0.888294019892172   1.0
H38   H   0.053406486883851   0.283633958908773   0.035141695410658   1.0
H39   H   0.923429299185592   0.357882189188032   0.314596351534710   1.0
H40   H   0.959826152057914   0.339708207573196   0.467596862051991   1.0
H41   H   0.980858753507192   0.311364964823724   0.619251631946071   1.0
H42   H   0.037878869586429   0.256730974264578   0.885013501171130   1.0
H43   H   0.823177416295607   0.937035134544111   0.106105393771536   1.0
H44   H   0.749615629778205   0.973136018751418   0.388268910555055   1.0
H45   H   0.752831505457024   0.971132447041789   0.542930766994665   1.0
H46   H   0.844418000081994   0.828643507645708   0.824917800667286   1.0
H47   H   0.844241828523828   0.913078693059738   0.964229023183201   1.0
H48   H   0.020784176970807   0.687695617459156   0.119209245674575   1.0
H49   H   0.963880124965200   0.742350102375134   0.384950606661526   1.0
H50   H   0.948187729437208   0.715393845788000   0.535102758243674   1.0
H51   H   0.078206058108592   0.641238782421141   0.814506908938164   1.0
H52   H   0.041809819773640   0.659311118689942   0.967545365327659   1.0
H53   H   0.542038552242587   0.839614220627574   0.103560239846757   1.0
H54   H   0.578584986797395   0.857781998929305   0.256601394577380   1.0
H55   H   0.448161894514030   0.783684428649735   0.536058357607175   1.0
H56   H   0.463433445852502   0.756649726993793   0.686174741138124   1.0
H57   H   0.520506760184652   0.811043455215852   0.951908347534911   1.0
H58   H   0.344490992382788   0.586011286363195   0.106952239786587   1.0
H59   H   0.344813740826666   0.670537790574151   0.246210580733681   1.0
H60   H   0.252896060135889   0.528060183337544   0.528093802128353   1.0
H61   H   0.249255956628097   0.525895750205763   0.682814822090997   1.0
H62   H   0.322990845196784   0.561732416968724   0.965112994020707   1.0
H63   H   0.553511082288594   0.215175597698966   0.036004721321404   1.0
H64   H   0.538309811638371   0.242272075833903   0.186129581915694   1.0
H65   H   0.481264080098732   0.187838756468402   0.451856446158011   1.0
H66   H   0.459589420854719   0.159288872451533   0.603511305253626   1.0
H67   H   0.423108229304233   0.141110938326030   0.756515112879335   1.0
H68   H   0.748796171709884   0.470793843217763   0.028094908094367   1.0
H69   H   0.752442350757072   0.473102951165515   0.182802542276931   1.0
H70   H   0.678712444820498   0.437183911530767   0.465115709901433   1.0
H71   H   0.657166079455024   0.412832122040058   0.606949225358633   1.0
H72   H   0.656882089788411   0.328411083054654   0.746185861083070   1.0


# Number_of_total_atoms: 72
# Number_of_atom_type: 3
# Name_of_each_atom: C O H
# Number_of_each_atom: 24 40 8
# Created_by: Lihua Chen (lihua.chen@mse.gatech.edu)
# Tool: VASP
# K-points: 4 6 1
# Pseudopotential: PBE-HSE06
# Material_class: MC_Pol
# Geometry_class: GC_cry
# Bandgap_(eV): 7.09
