#======================================================================

# Note: Crystal region of isotactic polymethyl methacrylate
# Common_name: Perfect crystal

#----------------------------------------------------------------------

data_Crystal


_chemical_name_common                  'i-pmma                               '
_cell_length_a                         19.17385
_cell_length_b                         11.30765
_cell_length_c                         10.31740
_cell_angle_alpha                      90.82069
_cell_angle_beta                       90.00394
_cell_angle_gamma                      89.97769
_space_group_name_H-M_alt              'P 1'
_space_group_IT_number                 1

loop_
_space_group_symop_operation_xyz
   'x, y, z'

loop_
   _atom_site_label
   _atom_site_occupancy
   _atom_site_fract_x
   _atom_site_fract_y
   _atom_site_fract_z
   _atom_site_adp_type
   _atom_site_B_iso_or_equiv
   _atom_site_type_symbol
   C1         1.0     0.150278      0.023273      0.118079     Biso  1.000000 C
   C2         1.0     0.141009      0.288152      0.955149     Biso  1.000000 C
   C3         1.0     0.267541      0.460033      0.212996     Biso  1.000000 C
   C4         1.0     0.730619      0.538343      0.216320     Biso  1.000000 C
   C5         1.0     0.769416      0.038157      0.715421     Biso  1.000000 C
   C6         1.0     0.232551      0.960183      0.712365     Biso  1.000000 C
   C7         1.0     0.289297      0.599636      0.670167     Biso  1.000000 C
   C8         1.0     0.708286      0.400354      0.668313     Biso  1.000000 C
   C9         1.0     0.791652      0.900029      0.167600     Biso  1.000000 C
   C10        1.0     0.210664      0.099841      0.169573     Biso  1.000000 C
   C11        1.0     0.346896      0.257948      0.398602     Biso  1.000000 C
   C12        1.0     0.650524      0.741779      0.407507     Biso  1.000000 C
   C13        1.0     0.849180      0.241497      0.906721     Biso  1.000000 C
   C14        1.0     0.153480      0.757895      0.898220     Biso  1.000000 C
   C15        1.0     0.610016      0.743703      0.731211     Biso  1.000000 C
   C16        1.0     0.388040      0.257714      0.719873     Biso  1.000000 C
   C17        1.0     0.112157      0.757665      0.219594     Biso  1.000000 C
   C18        1.0     0.889685      0.243515      0.230489     Biso  1.000000 C
   C19        1.0     0.602002      0.522961      0.732569     Biso  1.000000 C
   C20        1.0     0.396060      0.477815      0.730397     Biso  1.000000 C
   C21        1.0     0.104001      0.977837      0.229722     Biso  1.000000 C
   C22        1.0     0.897840      0.022793      0.231888     Biso  1.000000 C
   C23        1.0     0.861755      0.710807      0.949085     Biso  1.000000 C
   C24        1.0     0.638432      0.210969      0.450024     Biso  1.000000 C
   C25        1.0     0.358730      0.788092      0.455832     Biso  1.000000 C
   C26        1.0     0.195045      0.169676      0.518823     Biso  1.000000 C
   C27        1.0     0.299150      0.367815      0.846836     Biso  1.000000 C
   C28        1.0     0.201018      0.868007      0.346200     Biso  1.000000 C
   C29        1.0     0.799885      0.132239      0.350482     Biso  1.000000 C
   C30        1.0     0.529410      0.857521      0.617926     Biso  1.000000 C
   C31        1.0     0.468082      0.144811      0.599121     Biso  1.000000 C
   C32        1.0     0.032302      0.644350      0.099158     Biso  1.000000 C
   C33        1.0     0.970174      0.357270      0.116940     Biso  1.000000 C
   C34        1.0     0.622828      0.796198      0.074121     Biso  1.000000 C
   C35        1.0     0.377676      0.203873      0.064093     Biso  1.000000 C
   C36        1.0     0.122659      0.704240      0.563723     Biso  1.000000 C
   C37        1.0     0.623276      0.633845      0.812326     Biso  1.000000 C
   C38        1.0     0.876985      0.296090      0.573428     Biso  1.000000 C
   C39        1.0     0.593274      0.138286      0.831789     Biso  1.000000 C
   C40        1.0     0.907187      0.638750      0.330980     Biso  1.000000 C
   C41        1.0     0.092823      0.355854      0.340508     Biso  1.000000 C
   C42        1.0     0.485691      0.861951      0.259567     Biso  1.000000 C
   C43        1.0     0.514591      0.137473      0.242247     Biso  1.000000 C
   C44        1.0     0.985977      0.637665      0.742013     Biso  1.000000 C
   C45        1.0     0.013923      0.361794      0.758893     Biso  1.000000 C
   C46        1.0     0.304948      0.669389      0.019206     Biso  1.000000 C
   C47        1.0     0.696415      0.330161      0.014208     Biso  1.000000 C
   C48        1.0     0.803824      0.829820      0.513796     Biso  1.000000 C
   C49        1.0     0.406901      0.856108      0.841388     Biso  1.000000 C
   C50        1.0     0.375541      0.366619      0.806514     Biso  1.000000 C
   C51        1.0     0.699897      0.632486      0.851210     Biso  1.000000 C
   C52        1.0     0.876504      0.133682      0.311619     Biso  1.000000 C
   C53        1.0     0.819437      0.896247      0.850333     Biso  1.000000 C
   C54        1.0     0.182515      0.102344      0.850940     Biso  1.000000 C
   C55        1.0     0.448064      0.656127      0.331781     Biso  1.000000 C
   C56        1.0     0.550399      0.342877      0.326702     Biso  1.000000 C
   C57        1.0     0.949769      0.842931      0.826174     Biso  1.000000 C
   C58        1.0     0.051839      0.156035      0.831020     Biso  1.000000 C
   C59        1.0     0.381059      0.662268      0.414903     Biso  1.000000 C
   C60        1.0     0.616689      0.336810      0.411757     Biso  1.000000 C
   C61        1.0     0.124614      0.866724      0.305966     Biso  1.000000 C
   C62        1.0     0.118828      0.162278      0.914204     Biso  1.000000 C
   C63        1.0     0.320016      0.423189      0.534481     Biso  1.000000 C
   C64        1.0     0.677385      0.576765      0.538133     Biso  1.000000 C
   C65        1.0     0.822389      0.076454      0.037395     Biso  1.000000 C
   C66        1.0     0.180179      0.923290      0.033956     Biso  1.000000 C
   C67        1.0     0.403041      0.591822      0.536473     Biso  1.000000 C
   C68        1.0     0.594384      0.407956      0.535032     Biso  1.000000 C
   C69        1.0     0.905576      0.907819      0.034405     Biso  1.000000 C
   C70        1.0     0.096934      0.091760      0.035746     Biso  1.000000 C
   C71        1.0     0.349773      0.523191      0.618705     Biso  1.000000 C
   C72        1.0     0.647785      0.476810      0.619232     Biso  1.000000 C
   C73        1.0     0.852080      0.976582      0.118559     Biso  1.000000 C
   C74        1.0     0.680684      0.396380      0.351175     Biso  1.000000 C
   C75        1.0     0.317433      0.602250      0.351590     Biso  1.000000 C
   C76        1.0     0.883428      0.836710      0.911024     Biso  1.000000 C
   C77        1.0     0.961579      0.761294      0.705890     Biso  1.000000 C
   C78        1.0     0.038399      0.239130      0.715484     Biso  1.000000 C
   C79        1.0     0.482458      0.181776      0.929666     Biso  1.000000 C
   C80        1.0     0.017834      0.681917      0.429483     Biso  1.000000 C
   C81        1.0     0.984507      0.320015      0.448069     Biso  1.000000 C
   C82        1.0     0.574417      0.625487      0.931664     Biso  1.000000 C
   C83        1.0     0.424873      0.374765      0.925490     Biso  1.000000 C
   C84        1.0     0.075322      0.874985      0.424997     Biso  1.000000 C
   C85        1.0     0.925390      0.125354      0.430961     Biso  1.000000 C
   C86        1.0     0.557844      0.731120      0.024036     Biso  1.000000 C
   C87        1.0     0.442333      0.268853      0.014328     Biso  1.000000 C
   C88        1.0     0.057965      0.769138      0.513918     Biso  1.000000 C
   C89        1.0     0.515181      0.820222      0.949127     Biso  1.000000 C
   C90        1.0     0.393129      0.755872      0.143832     Biso  1.000000 C
   C91        1.0     0.608140      0.246051      0.136761     Biso  1.000000 C
   C92        1.0     0.892308      0.745736      0.636039     Biso  1.000000 C
   C93        1.0     0.106674      0.256089      0.643142     Biso  1.000000 C
   C94        1.0     0.516099      0.671247      0.134061     Biso  1.000000 C
   C95        1.0     0.484711      0.328970      0.124937     Biso  1.000000 C
   C96        1.0     0.015558      0.829193      0.624537     Biso  1.000000 C
   C97        1.0     0.983813      0.171138      0.633222     Biso  1.000000 C
   C98        1.0     0.461414      0.739183      0.216200     Biso  1.000000 C
   C99        1.0     0.538783      0.261239      0.206347     Biso  1.000000 C
   C100       1.0     0.941978      0.231018      0.523280     Biso  1.000000 C
   H1         1.0     0.791345      0.915565      0.472677     Biso  1.000000 H
   H2         1.0     0.207086      0.083077      0.477001     Biso  1.000000 H
   H3         1.0     0.307335      0.735897      0.943715     Biso  1.000000 H
   H4         1.0     0.593771      0.165425      0.492308     Biso  1.000000 H
   H5         1.0     0.805684      0.761620      0.437933     Biso  1.000000 H
   H6         1.0     0.192643      0.236249      0.443400     Biso  1.000000 H
   H7         1.0     0.402805      0.834327      0.500751     Biso  1.000000 H
   H8         1.0     0.708792      0.415919      0.973079     Biso  1.000000 H
   H9         1.0     0.694589      0.261969      0.938332     Biso  1.000000 H
   H10        1.0     0.293001      0.582755      0.977448     Biso  1.000000 H
   H11        1.0     0.003577      0.416205      0.674314     Biso  1.000000 H
   H12        1.0     0.765007      0.803941      0.585695     Biso  1.000000 H
   H13        1.0     0.735282      0.304356      0.086081     Biso  1.000000 H
   H14        1.0     0.265437      0.696461      0.090134     Biso  1.000000 H
   H15        1.0     0.993642      0.583720      0.654143     Biso  1.000000 H
   H16        1.0     0.507309      0.083514      0.154268     Biso  1.000000 H
   H17        1.0     0.495911      0.916379      0.174967     Biso  1.000000 H
   H18        1.0     0.053668      0.407720      0.816516     Biso  1.000000 H
   H19        1.0     0.947242      0.592226      0.800991     Biso  1.000000 H
   H20        1.0     0.553284      0.092243      0.301573     Biso  1.000000 H
   H21        1.0     0.234505      0.196733      0.589843     Biso  1.000000 H
   H22        1.0     0.906440      0.665202     -0.008694     Biso  1.000000 H
   H23        1.0     0.812546      0.827915      0.226123     Biso  1.000000 H
   H24        1.0     0.316381      0.785482      0.526768     Biso  1.000000 H
   H25        1.0     0.445876      0.907748      0.317190     Biso  1.000000 H
   H26        1.0     0.687439      0.328162      0.726732     Biso  1.000000 H
   H27        1.0     0.310205      0.672420      0.729849     Biso  1.000000 H
   H28        1.0     0.267174      0.030412      0.679245     Biso  1.000000 H
   H29        1.0     0.733969      0.967958      0.683352     Biso  1.000000 H
   H30        1.0     0.766106      0.468178      0.184203     Biso  1.000000 H
   H31        1.0     0.232931      0.530177      0.179475     Biso  1.000000 H
   H32        1.0     0.214840      0.903815      0.632109     Biso  1.000000 H
   H33        1.0     0.787055      0.091922      0.634557     Biso  1.000000 H
   H34        1.0     0.712945      0.592146      0.135484     Biso  1.000000 H
   H35        1.0     0.096865      0.334298      0.000010     Biso  1.000000 H
   H36        1.0     0.285324      0.403371      0.133024     Biso  1.000000 H
   H37        1.0     0.742195      0.092134      0.788441     Biso  1.000000 H
   H38        1.0     0.757793      0.592298      0.289410     Biso  1.000000 H
   H39        1.0     0.239365      0.409138      0.285834     Biso  1.000000 H
   H40        1.0     0.158693      0.339965      0.872637     Biso  1.000000 H
   H41        1.0     0.843381      0.658825      0.865603     Biso  1.000000 H
   H42        1.0     0.656852      0.158903      0.366639     Biso  1.000000 H
   H43        1.0     0.341002      0.839876      0.373317     Biso  1.000000 H
   H44        1.0     0.183346      0.285641      0.026127     Biso  1.000000 H
   H45        1.0     0.820057      0.713248      0.021484     Biso  1.000000 H
   H46        1.0     0.680124      0.213540      0.522454     Biso  1.000000 H
   H47        1.0     0.260679      0.908997      0.785048     Biso  1.000000 H
   H48        1.0     0.966013      0.357250      0.816207     Biso  1.000000 H
   H49        1.0     0.156635      0.765932      0.616647     Biso  1.000000 H
   H50        1.0     0.465073      0.139968      0.295054     Biso  1.000000 H
   H51        1.0     0.453617      0.159762      0.498115     Biso  1.000000 H
   H52        1.0     0.553906      0.851554      0.522389     Biso  1.000000 H
   H53        1.0     0.026637      0.362708      0.107414     Biso  1.000000 H
   H54        1.0     0.976283      0.629097      0.104304     Biso  1.000000 H
   H55        1.0     0.523969      0.128621      0.605885     Biso  1.000000 H
   H56        1.0     0.472962      0.862540      0.607755     Biso  1.000000 H
   H57        1.0     0.949979      0.435008      0.168839     Biso  1.000000 H
   H58        1.0     0.060944      0.569287      0.138659     Biso  1.000000 H
   H59        1.0     0.438708      0.069959      0.637166     Biso  1.000000 H
   H60        1.0     0.549156      0.935264      0.670357     Biso  1.000000 H
   H61        1.0     0.765166      0.137857      0.266435     Biso  1.000000 H
   H62        1.0     0.236141      0.862655      0.262567     Biso  1.000000 H
   H63        1.0     0.264006      0.362480      0.763225     Biso  1.000000 H
   H64        1.0     0.734599      0.638086      0.767156     Biso  1.000000 H
   H65        1.0     0.787137      0.207271      0.413086     Biso  1.000000 H
   H66        1.0     0.213346      0.792782      0.406495     Biso  1.000000 H
   H67        1.0     0.286886      0.292549      0.907087     Biso  1.000000 H
   H68        1.0     0.712609      0.707557      0.913758     Biso  1.000000 H
   H69        1.0     0.787952      0.050907      0.402098     Biso  1.000000 H
   H70        1.0     0.212758      0.949177      0.400775     Biso  1.000000 H
   H71        1.0     0.189692      0.172537      0.229335     Biso  1.000000 H
   H72        1.0     0.047759      0.658424     -0.001498     Biso  1.000000 H
   H73        1.0     0.946031      0.350788      0.021119     Biso  1.000000 H
   H74        1.0     0.657607      0.734473      0.123303     Biso  1.000000 H
   H75        1.0     0.343655      0.265501      0.117062     Biso  1.000000 H
   H76        1.0     0.533614      0.857631      0.316879     Biso  1.000000 H
   H77        1.0     0.063038      0.428152      0.299134     Biso  1.000000 H
   H78        1.0     0.938013      0.566765      0.289319     Biso  1.000000 H
   H79        1.0     0.562522      0.066161      0.790310     Biso  1.000000 H
   H80        1.0     0.436598      0.928547      0.800198     Biso  1.000000 H
   H81        1.0     0.117927      0.300897      0.265630     Biso  1.000000 H
   H82        1.0     0.883718      0.693746      0.255860     Biso  1.000000 H
   H83        1.0     0.616508      0.193337      0.756483     Biso  1.000000 H
   H84        1.0     0.381837      0.801281      0.766366     Biso  1.000000 H
   H85        1.0     0.131617      0.393572      0.407509     Biso  1.000000 H
   H86        1.0     0.035339      0.640482      0.795314     Biso  1.000000 H
   H87        1.0     0.867184      0.601147      0.394256     Biso  1.000000 H
   H88        1.0     0.368060      0.893560      0.908492     Biso  1.000000 H
   H89        1.0     0.848310      0.338187      0.494831     Biso  1.000000 H
   H90        1.0     0.152182      0.662972      0.484552     Biso  1.000000 H
   H91        1.0     0.348176      0.162634      0.984876     Biso  1.000000 H
   H92        1.0     0.651437      0.838392      0.995523     Biso  1.000000 H
   H93        1.0     0.890616      0.367497      0.641835     Biso  1.000000 H
   H94        1.0     0.108522      0.632489      0.629134     Biso  1.000000 H
   H95        1.0     0.391867      0.132092      0.129460     Biso  1.000000 H
   H96        1.0     0.609178      0.867537      0.142620     Biso  1.000000 H
   H97        1.0     0.842270      0.234383      0.622715     Biso  1.000000 H
   H98        1.0     0.633469      0.100932      0.894872     Biso  1.000000 H
   H99        1.0     0.253346      0.548409      0.729565     Biso  1.000000 H
   H100       1.0     0.944322      0.973668      0.004866     Biso  1.000000 H
   H101       1.0     0.755284      0.951524      0.227501     Biso  1.000000 H
   H102       1.0     0.987534      0.905251      0.585069     Biso  1.000000 H
   H103       1.0     0.011548      0.094612      0.591802     Biso  1.000000 H
   H104       1.0     0.492598      0.668727      0.398099     Biso  1.000000 H
   H105       1.0     0.505279      0.328993      0.390876     Biso  1.000000 H
   H106       1.0     0.994858      0.829130      0.890472     Biso  1.000000 H
   H107       1.0     0.007276      0.168485      0.897299     Biso  1.000000 H
   H108       1.0     0.451702      0.564348      0.295867     Biso  1.000000 H
   H109       1.0     0.546627      0.434986      0.294784     Biso  1.000000 H
   H110       1.0     0.953452      0.935049      0.794262     Biso  1.000000 H
   H111       1.0     0.048321      0.064272      0.795035     Biso  1.000000 H
   H112       1.0     0.430797      0.653901      0.601494     Biso  1.000000 H
   H113       1.0     0.566622      0.346207      0.598443     Biso  1.000000 H
   H114       1.0     0.512633      0.405079      0.085432     Biso  1.000000 H
   H115       1.0     0.933368      0.846071      0.097838     Biso  1.000000 H
   H116       1.0     0.441865      0.525909      0.505265     Biso  1.000000 H
   H117       1.0     0.555586      0.473733      0.505383     Biso  1.000000 H
   H118       1.0     0.287365      0.448938      0.901480     Biso  1.000000 H
   H119       1.0     0.744561      0.451879      0.728322     Biso  1.000000 H
   H120       1.0     0.400794      0.551817      0.800582     Biso  1.000000 H
   H121       1.0     0.597176      0.449039      0.800580     Biso  1.000000 H
   H122       1.0     0.902725      0.948887      0.299917     Biso  1.000000 H
   H123       1.0     0.099178      0.051858      0.299871     Biso  1.000000 H
   H124       1.0     0.448804      0.461783      0.692707     Biso  1.000000 H
   H125       1.0     0.549237      0.539733      0.695908     Biso  1.000000 H
   H126       1.0     0.950596      0.039570      0.195225     Biso  1.000000 H
   H127       1.0     0.051277      0.961721      0.191983     Biso  1.000000 H
   H128       1.0     0.069078      0.153760      0.100743     Biso  1.000000 H
   H129       1.0     0.488476      0.594610      0.092718     Biso  1.000000 H
   H130       1.0     0.058213      0.025738      0.004503     Biso  1.000000 H
   H131       1.0     0.054654      0.867087      0.691695     Biso  1.000000 H
   H132       1.0     0.944667      0.134162      0.699639     Biso  1.000000 H
   H133       1.0     0.246702      0.048651      0.228898     Biso  1.000000 H
   H134       1.0     0.258663      0.635943      0.590904     Biso  1.000000 H
   H135       1.0     0.738582      0.363267      0.587939     Biso  1.000000 H
   H136       1.0     0.761439      0.862826      0.087193     Biso  1.000000 H
   H137       1.0     0.241232      0.136268      0.090316     Biso  1.000000 H
   H138       1.0     0.339575      0.178697      0.457220     Biso  1.000000 H
   H139       1.0     0.659130      0.821190      0.467755     Biso  1.000000 H
   H140       1.0     0.840820      0.321150      0.966721     Biso  1.000000 H
   H141       1.0     0.160830      0.678588      0.956758     Biso  1.000000 H
   H142       1.0     0.387531      0.243523      0.326220     Biso  1.000000 H
   H143       1.0     0.609460      0.756846      0.336637     Biso  1.000000 H
   H144       1.0     0.890106      0.256098      0.835486     Biso  1.000000 H
   H145       1.0     0.112908      0.743518      0.825722     Biso  1.000000 H
   H146       1.0     0.711894      0.551199      0.902887     Biso  1.000000 H
   H147       1.0     0.698808      0.718095      0.357650     Biso  1.000000 H
   H148       1.0     0.445581      0.366826      0.192078     Biso  1.000000 H
   H149       1.0     0.297954      0.280255      0.350846     Biso  1.000000 H
   H150       1.0     0.555302      0.634449      0.200526     Biso  1.000000 H
   H151       1.0     0.024587      0.907981      0.391343     Biso  1.000000 H
   H152       1.0     0.475579      0.407803      0.891825     Biso  1.000000 H
   H153       1.0     0.523506      0.593149      0.897461     Biso  1.000000 H
   H154       1.0     0.976299      0.092950      0.396746     Biso  1.000000 H
   H155       1.0     0.097008      0.945526      0.487888     Biso  1.000000 H
   H156       1.0     0.403181      0.445250      0.988483     Biso  1.000000 H
   H157       1.0     0.596241      0.554564      0.991692     Biso  1.000000 H
   H158       1.0     0.202439      0.780286      0.850618     Biso  1.000000 H
   H159       1.0     0.800747      0.217937      0.857317     Biso  1.000000 H
   H160       1.0     0.903592      0.054477      0.491046     Biso  1.000000 H
   O1         1.0     0.667749      0.488708      0.272061     Biso  1.000000 O
   O2         1.0     0.128169      0.157541      0.579958     Biso  1.000000 O
   O3         1.0     0.257843      0.631791      0.376947     Biso  1.000000 O
   O4         1.0     0.740149      0.366888      0.376332     Biso  1.000000 O
   O5         1.0     0.759973      0.866672      0.875411     Biso  1.000000 O
   O6         1.0     0.242085      0.131995      0.876310     Biso  1.000000 O
   O7         1.0     0.330509      0.509856      0.270002     Biso  1.000000 O
   O8         1.0     0.832307     -0.011397      0.771253     Biso  1.000000 O
   O9         1.0     0.241918      0.908613      0.012478     Biso  1.000000 O
   O10        1.0     0.258287      0.408301      0.513103     Biso  1.000000 O
   O11        1.0     0.738986      0.591392      0.516189     Biso  1.000000 O
   O12        1.0     0.760758      0.090856      0.015184     Biso  1.000000 O
   O13        1.0     0.871157      0.843196      0.573092     Biso  1.000000 O
   O14        1.0     0.370791      0.354011      0.480154     Biso  1.000000 O
   O15        1.0     0.626486      0.646770      0.487316     Biso  1.000000 O
   O16        1.0     0.873213      0.146611      0.986748     Biso  1.000000 O
   O17        1.0     0.129489      0.853861      0.979841     Biso  1.000000 O
   O18        1.0     0.169546      0.009875      0.769409     Biso  1.000000 O
   O19        1.0     0.629069      0.343410      0.073506     Biso  1.000000 O
   O20        1.0     0.951102      0.715108      0.408758     Biso  1.000000 O
   O21        1.0     0.140960      0.347206      0.648082     Biso  1.000000 O
   O22        1.0     0.156923      0.686002      0.188173     Biso  1.000000 O
   O23        1.0     0.845721      0.316473      0.200758     Biso  1.000000 O
   O24        1.0     0.343298      0.186168      0.688260     Biso  1.000000 O
   O25        1.0     0.653897      0.816671      0.701454     Biso  1.000000 O
   O26        1.0     0.542717      0.752998      0.691391     Biso  1.000000 O
   O27        1.0     0.454804      0.249211      0.676353     Biso  1.000000 O
   O28        1.0     0.956951      0.252829      0.190567     Biso  1.000000 O
   O29        1.0     0.537051      0.918033      0.922776     Biso  1.000000 O
   O30        1.0     0.454781      0.096436      0.878478     Biso  1.000000 O
   O31        1.0     0.045367      0.595935      0.379286     Biso  1.000000 O
   O32        1.0     0.962422      0.417540      0.420958     Biso  1.000000 O
   O33        1.0     0.452331      0.777944      0.911923     Biso  1.000000 O
   O34        1.0     0.549340      0.214445      0.909817     Biso  1.000000 O
   O35        1.0     0.047483      0.277840      0.411315     Biso  1.000000 O
   O36        1.0     0.358628      0.846903      0.148931     Biso  1.000000 O
   O37        1.0     0.643992      0.156863      0.144166     Biso  1.000000 O
   O38        1.0     0.856747      0.656296      0.642923     Biso  1.000000 O
   O39        1.0     0.371812      0.657389      0.080451     Biso  1.000000 O
   O40        1.0     0.045398      0.748960      0.176148     Biso  1.000000 O

# Number_of_total_atoms: 300
# Number_of_atom_type: 3
# Name_of_each_atom: C H O
# Number_of_each_atom: 100 160 40
# Created_by: Lihua Chen (lihua.chen@mse.gatech.edu)
# Tool: VASP
# K-points: 1 2 2
# Pseudopotential: PBE-HSE06
# Material_class: MC_Pol
# Geometry_class: GC_cry
# Bandgap_(eV): 6.30
