#======================================================================

# Note: Crystal region of isotactic polyethyl acrylate
# Common_name: Perfect crystal

#----------------------------------------------------------------------

data_1
_audit_creation_method   'vasp2cif'
_cell_length_a    7.92524218607
_cell_length_b    15.2096027027
_cell_length_c    6.22681388354
_cell_angle_alpha    83.9144186439
_cell_angle_beta    91.1886906706
_cell_angle_gamma    93.0846376702

_symmetry_space_group_name_H-M    'P 1'
loop_
_atom_site_label
_atom_site_type_symbol
_atom_site_fract_x
_atom_site_fract_y
_atom_site_fract_z
_atom_site_occupancy
C1   C   0.613304421135780   0.919216341733581   0.348604638867606   1.0
C2   C   0.452273803386674   0.383491181106834   0.569624127600456   1.0
C3   C   0.648127221645979   0.931338183350576   0.587906926102534   1.0
C4   C   0.461430940127265   0.388952947875971   0.813581658807536   1.0
C5   C   0.824710441398494   0.908117947205227   0.676693905078800   1.0
C6   C   0.636516531303428   0.372396494812875   0.914645604277759   1.0
C7   C   0.830083527656434   0.894074866659459   0.926870532035558   1.0
C8   C   0.622105843306358   0.363642631012262   0.160870338869543   1.0
C9   C   0.676811988377402   0.839204742926917   0.025765452784618   1.0
C10   C   0.505787475874087   0.286549712032240   0.268589130223326   1.0
C11   C   0.688765217882306   0.835305851062522   0.275341269052483   1.0
C12   C   0.508617472849551   0.292898791593274   0.511928954525160   1.0
C13   C   0.770649014567255   0.444219122735930   0.835973116078613   1.0
C14   C   0.275950066460489   0.395857812788876   0.477662511427439   1.0
C15   C   0.557306130598960   0.195777677626658   0.220300948327463   1.0
C16   C   0.067233544232835   0.491157119700205   0.853027093096216   1.0
C17   C   0.068441108332586   0.580187514345681   0.942378536330658   1.0
C18   C   0.001735727715754   0.318449232955643   0.455130794170636   1.0
C19   C   0.017414167057382   0.255135960746713   0.283081718300806   1.0
C20   C   0.608365759749098   0.114008117379903   0.910470704094486   1.0
C21   C   0.799745157093085   0.125648848884865   0.903321934972226   1.0
C22   C   0.963887611567060   0.974380419656214   0.587635229876881   1.0
C23   C   0.422903228645239   0.911559682903381   0.304458722163723   1.0
C24   C   0.659751820289088   0.747616435438822   0.950530471125695   1.0
C25   C   0.241895235290315   0.037192034004313   0.680085487311054   1.0
C26   C   0.198587118144630   0.114433789038344   0.802533565912512   1.0
C27   C   0.169717952749870   0.817618707451217   0.401961708595643   1.0
C28   C   0.155843835190439   0.740368658594235   0.265561220367800   1.0
C29   C   0.540404645166298   0.604881604524060   0.081747019880275   1.0
C30   C   0.670441943407205   0.592550939197743   0.265199126203278   1.0
H31   H   0.664505116070892   0.977679116602687   0.250875381950898   1.0
H32   H   0.532386335143698   0.437661574434252   0.494561999353351   1.0
H33   H   0.624149343501550   0.999711108910702   0.611466634878965   1.0
H34   H   0.425756419029305   0.454668801318498   0.847172884473913   1.0
H35   H   0.554858434094427   0.888859367621770   0.679711350455790   1.0
H36   H   0.369272352911096   0.340467279502832   0.890930543111132   1.0
H37   H   0.854882732764374   0.844417575255918   0.625416278297187   1.0
H38   H   0.683088484618601   0.311245738219640   0.867739171211142   1.0
H39   H   0.944791590746291   0.860326498749117   0.978171074041263   1.0
H40   H   0.746832804663796   0.360007567848683   0.236113604280334   1.0
H41   H   0.839981620331677   0.957363680664102   0.995178225849855   1.0
H42   H   0.570280367423265   0.424431915321186   0.200799402889011   1.0
H43   H   0.558689326741927   0.870278076123881   0.977017213213230   1.0
H44   H   0.376959592949334   0.293338565259298   0.204074289399323   1.0
H45   H   0.821808943129625   0.832981878443377   0.322666651788388   1.0
H46   H   0.637025798465459   0.282399623394994   0.572041630229123   1.0
H47   H   0.622913820332130   0.776294441482634   0.355185275016694   1.0
H48   H   0.426784838226553   0.240430254655422   0.592605426469319   1.0
H49   H   0.175479368432519   0.454400808811698   0.910855569826715   1.0
H50   H   0.059179375014942   0.497852520086333   0.676836130722727   1.0
H51   H   0.183964613282143   0.618784149933106   0.889004304152429   1.0
H52   H   0.071086234590808   0.570902820536702   0.118656647438563   1.0
H53   H   0.960242014485075   0.617503167318496   0.883871310890633   1.0
H54   H   0.916920448582410   0.290991348481917   0.583803236553621   1.0
H55   H   0.963277349323498   0.383601302332352   0.388178885706843   1.0
H56   H   0.893096017079735   0.239412656515967   0.215095311636894   1.0
H57   H   0.067824602138273   0.192608181329227   0.352085802178934   1.0
H58   H   0.097098943463727   0.285226830880035   0.150741268143378   1.0
H59   H   0.561003358554892   0.052633576248311   0.999623685673697   1.0
H60   H   0.555862249624859   0.119750603619074   0.747392349889900   1.0
H61   H   0.843615263549040   0.086385127537845   0.781765518443066   1.0
H62   H   0.860762409481318   0.105869482767524   0.058383537307371   1.0
H63   H   0.838448453564311   0.194686509441958   0.851325717594044   1.0
H64   H   0.352326078662124   0.004685852195813   0.748128224763896   1.0
H65   H   0.256534455623822   0.055583871561815   0.506661538012743   1.0
H66   H   0.303143262484689   0.163528889721739   0.801199478815491   1.0
H67   H   0.171480218294967   0.090702038189214   0.971086404164730   1.0
H68   H   0.090304291870808   0.147415760546835   0.727902217241976   1.0
H69   H   0.121116200983352   0.799329468706894   0.564249462061959   1.0
H70   H   0.107462767568840   0.875168243222973   0.324277779555693   1.0
H71   H   0.022500351658415   0.718773857850039   0.249408443515577   1.0
H72   H   0.224313816747738   0.684369854937216   0.341888087727511   1.0
H73   H   0.206331244110686   0.759178172099027   0.104016175586104   1.0
H74   H   0.415493563252241   0.577229370824497   0.129165687563528   1.0
H75   H   0.579116293269749   0.580106219573288   0.933418954448129   1.0
H76   H   0.701293027439448   0.523726995331423   0.300997451001862   1.0
H77   H   0.623817246367494   0.614613249108665   0.413337709458205   1.0
H78   H   0.789117494683410   0.629522464812794   0.222317119980772   1.0
O79   O   0.747970859687143   0.505259892908825   0.695131409159252   1.0
O80   O   0.922813404654434   0.430186499049427   0.935345816924503   1.0
O81   O   0.236194087731619   0.453407289658763   0.334712644504862   1.0
O82   O   0.166560858386092   0.329915797594936   0.566452477908605   1.0
O83   O   0.612707397952853   0.138114596209803   0.351699862896318   1.0
O84   O   0.535948383291114   0.188716743517446   0.005977474890912   1.0
O85   O   0.952985887562214   0.026829971820028   0.424001928395363   1.0
O86   O   0.105288092174561   0.967097939661677   0.714768177739700   1.0
O87   O   0.345513302126172   0.956164756696552   0.162684478800450   1.0
O88   O   0.349383724361189   0.843792450357832   0.439030904280237   1.0
O89   O   0.760015358452705   0.716011666286768   0.836296213822834   1.0
O90   O   0.518920422387843   0.701662396923332   0.035865598044829   1.0


# Number_of_total_atoms: 90
# Number_of_atom_type: 3
# Name_of_each_atom: C H O
# Number_of_each_atom: 30 48 12
# Created_by: Lihua Chen (lihua.chen@mse.gatech.edu)
# Tool: VASP
# K-points: 1 1 4
# Pseudopotential: PBE-HSE06
# Material_class: MC_Pol
# Geometry_class: GC_cry
# Bandgap_(eV): 6.49
