#======================================================================

# Note: Crystal region of syndiotactic polyvinyl chloride
# Common_name: Perfect crystal

#----------------------------------------------------------------------

data_1
_audit_creation_method   'vasp2cif'
_cell_length_a    9.80301090995
_cell_length_b    4.99745251407
_cell_length_c    5.12745264959
_cell_angle_alpha    90.0
_cell_angle_beta    90.0
_cell_angle_gamma    90.0

_symmetry_space_group_name_H-M    'P 1'
loop_
_atom_site_label
_atom_site_type_symbol
_atom_site_fract_x
_atom_site_fract_y
_atom_site_fract_z
_atom_site_occupancy
C1   C   0.246732685746096   0.115063640250113   0.750000000044288   1.0
C2   C   0.753267314244134   0.884936416791874   0.250000000014765   1.0
C3   C   0.746732685692386   0.884936416791874   0.750000000044288   1.0
C4   C   0.253267314297844   0.115063640250113   0.250000000014765   1.0
C5   C   0.250000000021970   0.949218820945980   0.500000000029530   1.0
C6   C   0.749999999968260   0.050781173309744   0.500000000029530   1.0
C7   C   0.749999999968260   0.050781173309744   0.000000000000000   1.0
C8   C   0.250000000021970   0.949218820945980   0.000000000000000   1.0
H9   H   0.159944051087827   0.819539610729471   0.007469257666330   1.0
H10   H   0.828055572683603   0.736282587940288   0.750000000044288   1.0
H11   H   0.171944415685537   0.263717389330701   0.250000000014765   1.0
H12   H   0.659944016170833   0.180460400701826   0.007469257666330   1.0
H13   H   0.340055960577210   0.819539610729471   0.992530742333670   1.0
H14   H   0.340055960577210   0.819539610729471   0.507469257695860   1.0
H15   H   0.659944016170833   0.180460400701826   0.492530742363201   1.0
H16   H   0.159944051087827   0.819539610729471   0.492530742363201   1.0
H17   H   0.840055937281313   0.180460400701826   0.507469257695860   1.0
H18   H   0.840055937281313   0.180460400701826   0.992530742333670   1.0
H19   H   0.671944380768544   0.736282587940288   0.250000000014765   1.0
H20   H   0.328055595979500   0.263717389330701   0.750000000044288   1.0
Cl21   Cl   0.087790457079436   0.324660364295283   0.750000000044288   1.0
Cl22   Cl   0.587790445502293   0.675339658395565   0.750000000044288   1.0
Cl23   Cl   0.412209554585601   0.324660364295283   0.250000000014765   1.0
Cl24   Cl   0.912209507949861   0.675339658395565   0.250000000014765   1.0


# Number_of_total_atoms: 24
# Number_of_atom_type: 3
# Name_of_each_atom: C H Cl
# Number_of_each_atom: 8 12 4
# Created_by: Lihua Chen (lihua.chen@mse.gatech.edu)
# Tool: VASP
# K-points: 3 6 6
# Pseudopotential: PBE-HSE06
# Material_class: MC_Pol
# Geometry_class: GC_cry
# Bandgap_(eV): 6.67
