#======================================================================

# Note: Crystal region of polyvinylidene fluoride (alpha)
# Common_name: Perfect crystal

#----------------------------------------------------------------------

data_1
_audit_creation_method   'vasp2cif'
_cell_length_a    8.29209579189
_cell_length_b    4.87750966151
_cell_length_c    4.5855361084
_cell_angle_alpha    90.0210722308
_cell_angle_beta    90.3840130287
_cell_angle_gamma    90.2687839885

_symmetry_space_group_name_H-M    'P 1'
loop_
_atom_site_label
_atom_site_type_symbol
_atom_site_fract_x
_atom_site_fract_y
_atom_site_fract_z
_atom_site_occupancy
C1   C   0.008490000676318   0.156141686868217   0.064808544284070   1.0
C2   C   0.008424081135921   0.415742724423417   0.564956913870901   1.0
C3   C   0.503290088203471   0.890484297863679   0.032609828079870   1.0
C4   C   0.503754043910639   0.615822763578706   0.532436358238982   1.0
C5   C   0.020097821781384   0.423510962285533   0.229620101430761   1.0
C6   C   0.020449558092501   0.148774562018012   0.729443568347541   1.0
C7   C   0.515408218283824   0.623541274033627   0.197107415781282   1.0
C8   C   0.515220529496126   0.883220925188013   0.697257801814281   1.0
F9   F   0.135097993192801   0.982449341728831   0.171014072259751   1.0
F10   F   0.865145004593053   0.015464506434121   0.146229518421144   1.0
F11   F   0.658485141582496   0.024068352878196   0.615749361617887   1.0
F12   F   0.388868810237263   0.447072300780228   0.091166217058017   1.0
F13   F   0.388552636140226   0.056824499340585   0.591113926675469   1.0
F14   F   0.658995501892093   0.486131237912339   0.115438371387121   1.0
F15   F   0.864830459255749   0.553161067912590   0.646587494393984   1.0
F16   F   0.134980529122167   0.592162603967083   0.670938102346085   1.0
H17   H   0.597461134067281   0.479560015997507   0.611258854128337   1.0
H18   H   0.387553281085729   0.978954690950466   0.086130776894869   1.0
H19   H   0.596600757379356   0.028873258197834   0.111875416184873   1.0
H20   H   0.135622065821757   0.514248396802401   0.175815757048554   1.0
H21   H   0.136137913319786   0.060118764687552   0.675968143306442   1.0
H22   H   0.926481631219609   0.559943101390104   0.150835527332809   1.0
H23   H   0.388290211043959   0.524871760553111   0.586306917851303   1.0
H24   H   0.927062581125853   0.010516957596351   0.650210964717189   1.0


# Number_of_total_atoms: 24
# Number_of_atom_type: 3
# Name_of_each_atom: C F H
# Number_of_each_atom: 8 8 8
# Created_by: Lihua Chen (lihua.chen@mse.gatech.edu)
# Tool: VASP
# K-points: 3 6 6
# Pseudopotential: PBE-HSE06
# Material_class: MC_Pol
# Geometry_class: GC_cry
# Bandgap_(eV): 9.81
