#======================================================================

# Note: Crystal region of polyvinylidene fluoride (beta)
# Common_name: Perfect crystal

#----------------------------------------------------------------------

data_1
_audit_creation_method   'vasp2cif'
_cell_length_a    7.73224575632
_cell_length_b    4.22086051414
_cell_length_c    2.53584934639
_cell_angle_alpha    90.0
_cell_angle_beta    90.0
_cell_angle_gamma    90.0

_symmetry_space_group_name_H-M    'P 1'
loop_
_atom_site_label
_atom_site_type_symbol
_atom_site_fract_x
_atom_site_fract_y
_atom_site_fract_z
_atom_site_occupancy
C1   C   0.000000000000000   0.983909021919317   0.000000000000000   1.0
C2   C   0.499999999993534   0.483909078600199   0.000000000000000   1.0
C3   C   0.000000000000000   0.176442292556331   0.499999999960565   1.0
C4   C   0.499999999993534   0.676442250327007   0.499999999960565   1.0
F5   F   0.855828288847576   0.384352417852561   0.499999999960565   1.0
F6   F   0.355828288854049   0.884352418030247   0.499999999960565   1.0
F7   F   0.144171741920658   0.384352417852561   0.499999999960565   1.0
F8   F   0.644171741914192   0.884352418030247   0.499999999960565   1.0
H9   H   0.886585233578721   0.833476855326111   0.000000000000000   1.0
H10   H   0.386585202674681   0.333476911770077   0.000000000000000   1.0
H11   H   0.113414781928263   0.833476855326111   0.000000000000000   1.0
H12   H   0.613414797312387   0.333476911770077   0.000000000000000   1.0


# Number_of_total_atoms: 12
# Number_of_atom_type: 3
# Name_of_each_atom: C F H
# Number_of_each_atom: 4 4 4
# Created_by: Lihua Chen (lihua.chen@mse.gatech.edu)
# Tool: VASP
# K-points: 4 7 12
# Pseudopotential: PBE-HSE06
# Material_class: MC_Pol
# Geometry_class: GC_cry
# Bandgap_(eV): 8.71
