#======================================================================

# Note: Crystal region of polyvinylidene fluoride (gamma)
# Common_name: Perfect crystal

#----------------------------------------------------------------------

data_1
_audit_creation_method   'vasp2cif'
_cell_length_a    8.9722973528
_cell_length_b    4.65299401271
_cell_length_c    8.23210818661
_cell_angle_alpha    89.9956837438
_cell_angle_beta    90.0068148546
_cell_angle_gamma    89.706074812

_symmetry_space_group_name_H-M    'P 1'
loop_
_atom_site_label
_atom_site_type_symbol
_atom_site_fract_x
_atom_site_fract_y
_atom_site_fract_z
_atom_site_occupancy
C1   C   0.573626983468571   0.440533815358805   0.009346155387711   1.0
C2   C   0.827339212719913   0.439686183655098   0.142799067208742   1.0
C3   C   0.073514380509231   0.441259684862203   0.003900390052877   1.0
C4   C   0.327426603456104   0.440315707827978   0.870516808453530   1.0
C5   C   0.584842662847336   0.881786518679746   0.513728330427533   1.0
C6   C   0.840848428918456   0.887034444768140   0.641172362634897   1.0
C7   C   0.084953589291004   0.882548623955742   0.499274241045583   1.0
C8   C   0.340829868779636   0.887635245331424   0.371649141946534   1.0
C9   C   0.669597246616341   0.334848987072313   0.145733092917716   1.0
C10   C   0.917268591049961   0.334265298150086   0.002515994496804   1.0
C11   C   0.169612777228032   0.335853026914371   0.867514167592965   1.0
C12   C   0.417298867410004   0.334250151499617   0.010693825753130   1.0
C13   C   0.682247957175015   0.991508845008084   0.646882817911084   1.0
C14   C   0.927957284616397   0.989564216240112   0.498044760477896   1.0
C15   C   0.182260609454772   0.992299081428165   0.366066351289284   1.0
C16   C   0.427937854900158   0.989407084300090   0.514925826003655   1.0
F17   F   0.662506616957991   0.029975141955703   0.151928355426499   1.0
F18   F   0.850655037054921   0.423049439212804   0.855983670547708   1.0
F19   F   0.110296992462516   0.423405065243045   0.716167863554638   1.0
F20   F   0.410252613046637   0.029116994170494   0.016558294998184   1.0
F21   F   0.625628745802814   0.910853892156531   0.800506775909469   1.0
F22   F   0.918479190534356   0.294253108470834   0.489625308904650   1.0
F23   F   0.173378521702844   0.296972355878417   0.365565451783624   1.0
F24   F   0.360680669666110   0.897412523645009   0.660655170299712   1.0
F25   F   0.610177061990548   0.421643866285130   0.297147689538839   1.0
F26   F   0.910467999551045   0.029167788789188   0.996544248500413   1.0
F27   F   0.162455963649634   0.031019968664964   0.860924161937206   1.0
F28   F   0.350713494613196   0.423136142024134   0.157213787102357   1.0
F29   F   0.673304811173971   0.296140244494317   0.647611065199797   1.0
F30   F   0.860812375694998   0.897917648644878   0.352188696122432   1.0
F31   F   0.125612797396542   0.911976399535170   0.212359802458039   1.0
F32   F   0.418489019024875   0.294082767641733   0.523763667179061   1.0
H33   H   0.624334997767143   0.383484600110819   0.894890279692291   1.0
H34   H   0.823429471646271   0.671904733760002   0.134980283202402   1.0
H35   H   0.068895614765296   0.673631224562435   0.996834401070856   1.0
H36   H   0.382823860504971   0.381791800271550   0.758540840607566   1.0
H37   H   0.581268177288315   0.649772129596734   0.522844211086181   1.0
H38   H   0.898234718352469   0.949781712207610   0.751123434090360   1.0
H39   H   0.134651607428729   0.936360011155706   0.614699779120969   1.0
H40   H   0.339002643239454   0.655000620088927   0.376295746588745   1.0
H41   H   0.569371692489248   0.672977518660879   0.016126693192433   1.0
H42   H   0.882817293800223   0.381064100268965   0.254709486976054   1.0
H43   H   0.124275561690851   0.384931048747276   0.118441971155896   1.0
H44   H   0.323662469028797   0.672518271018063   0.878596446390979   1.0
H45   H   0.634629214857320   0.934655710145911   0.398237640807984   1.0
H46   H   0.839077452438900   0.654459558042021   0.636235106284012   1.0
H47   H   0.081705948441069   0.650475573501005   0.490508614307380   1.0
H48   H   0.398304456259474   0.950602074069167   0.261788261563467   1.0


# Number_of_total_atoms: 48
# Number_of_atom_type: 3
# Name_of_each_atom: C F H
# Number_of_each_atom: 16 16 16
# Created_by: Lihua Chen (lihua.chen@mse.gatech.edu)
# Tool: VASP
# K-points: 3 6 3
# Pseudopotential: PBE-HSE06
# Material_class: MC_Pol
# Geometry_class: GC_cry
# Bandgap_(eV): 9.23
