#======================================================================

# Note: Single chain of polyethylene oxide
# Common_name: single chain

#----------------------------------------------------------------------

data_1
_audit_creation_method   'vasp2cif'
_cell_length_a    20.0
_cell_length_b    20.0
_cell_length_c    18.9993991852
_cell_angle_alpha    90.0
_cell_angle_beta    90.0
_cell_angle_gamma    90.0

_symmetry_space_group_name_H-M    'P 1'
loop_
_atom_site_label
_atom_site_type_symbol
_atom_site_fract_x
_atom_site_fract_y
_atom_site_fract_z
_atom_site_occupancy
C1   C   0.740337337991839   0.157301117251976   0.788919076133922   1.0
C2   C   0.694669960356862   0.216739520668746   0.690213864130783   1.0
C3   C   0.710426897441479   0.272968132741418   0.639309427611209   1.0
C4   C   0.834779857228405   0.271953079314194   0.494343980463412   1.0
C5   C   0.792007950175808   0.163225792147635   0.846985810513033   1.0
C6   C   0.659998227015421   0.261551108163673   0.138683738549418   1.0
C7   C   0.708756126675745   0.297870215405332   0.090923212581011   1.0
C8   C   0.817470960346682   0.224560897897412   0.952132128664459   1.0
C9   C   0.790516319527804   0.278181966691570   0.000898159247122   1.0
C10   C   0.784874995940513   0.302640150799988   0.545068262408527   1.0
C11   C   0.841110896892225   0.194713902089866   0.397427902216997   1.0
C12   C   0.658160618496993   0.183607130233398   0.235447342660898   1.0
C13   C   0.704375725232829   0.139436845915661   0.278454970155828   1.0
C14   C   0.798963191874080   0.145211524902869   0.356304774633948   1.0
H15   H   0.722261408291423   0.318973599261625   0.668628378955106   1.0
H16   H   0.666540939082005   0.282574672009233   0.605713677680910   1.0
H17   H   0.740494894428480   0.319398496851349   0.515676611340034   1.0
H18   H   0.689978331497663   0.154298935322068   0.812125201226742   1.0
H19   H   0.840771232979435   0.176964424140699   0.824260953886871   1.0
H20   H   0.693190035644058   0.168956896472878   0.661469605439848   1.0
H21   H   0.749515381695765   0.111446401156627   0.758217100602238   1.0
H22   H   0.645373308008701   0.225269089441561   0.714570636958882   1.0
H23   H   0.622333576903742   0.234638671289901   0.107288167784546   1.0
H24   H   0.825642662361844   0.177960519282642   0.981802965400206   1.0
H25   H   0.773991966642257   0.321744742401492   0.969997265236621   1.0
H26   H   0.865756646179662   0.241107710270825   0.930196731200759   1.0
H27   H   0.749357531132517   0.319299713198767   0.122928323673754   1.0
H28   H   0.830558330179393   0.294301257431790   0.036984246349100   1.0
H29   H   0.634130781471221   0.298403947292954   0.172165070733570   1.0
H30   H   0.797268019067339   0.114757265092500   0.874052252443121   1.0
H31   H   0.682859509585469   0.338914171306222   0.063381424724874   1.0
H32   H   0.807443841396200   0.346311225905083   0.571337121987888   1.0
H33   H   0.775008012238267   0.109705430231031   0.392725567202760   1.0
H34   H   0.634802484993969   0.221445238715212   0.269650014834582   1.0
H35   H   0.618350129108983   0.152870694948526   0.211669128056414   1.0
H36   H   0.831137879983331   0.116936671859776   0.319767887875479   1.0
H37   H   0.876100338446996   0.248372910912153   0.523544774298244   1.0
H38   H   0.855641765307752   0.311497291107138   0.460422962420722   1.0
H39   H   0.859348557663651   0.234373657932260   0.362086086177300   1.0
H40   H   0.884629269836147   0.168756990462306   0.420295660614912   1.0
H41   H   0.732817217216819   0.106277102353644   0.243164406241931   1.0
H42   H   0.674695615019438   0.108300829144994   0.314745041521981   1.0
O43   O   0.766342430164968   0.252998641913386   0.596346602861459   1.0
O44   O   0.697400740891588   0.215533593904482   0.181601710575670   1.0
O45   O   0.800291921420914   0.223024485747636   0.452232666128182   1.0
O46   O   0.745650487641100   0.214938783978631   0.743761792654247   1.0
O47   O   0.770262889907308   0.213648396252275   0.896080548944987   1.0
O48   O   0.735602433331422   0.251015413674743   0.040784170182349   1.0
O49   O   0.749145603883527   0.181838080659837   0.317552691870887   1.0


# Number_of_total_atoms: 49
# Number_of_atom_type: 3
# Name_of_each_atom: C H O
# Number_of_each_atom: 14 28 7
# Created_by: Lihua Chen (lihua.chen@mse.gatech.edu)
# Tool: VASP
# K-points: 1 1 1
# Pseudopotential: PBE-HSE06
# Material_class: MC_Pol
# Geometry_class: GC_PD
# Bandgap_(eV): 5.99
