#======================================================================

# Note: Single chain of polyproplyene oxide
# Common_name: single chain

#----------------------------------------------------------------------

data_1
_audit_creation_method   'vasp2cif'
_cell_length_a    5.4758000374
_cell_length_b    20.0
_cell_length_c    20.0
_cell_angle_alpha    90.0
_cell_angle_beta    90.0
_cell_angle_gamma    90.0

_symmetry_space_group_name_H-M    'P 1'
loop_
_atom_site_label
_atom_site_type_symbol
_atom_site_fract_x
_atom_site_fract_y
_atom_site_fract_z
_atom_site_occupancy
C1   C   0.329877289785749   0.400977595843500   0.407910470724708   1.0
C2   C   0.128854819019430   0.526479420959518   0.533116562139746   1.0
C3   C   0.631042015376721   0.475798732434448   0.466907722239682   1.0
C4   C   0.829752700382457   0.604392780469290   0.589430800172295   1.0
C5   C   0.375440549000018   0.444952403588921   0.469438512184851   1.0
C6   C   0.875759949494267   0.558692211381825   0.529233426302355   1.0
H7   H   0.345173041656871   0.430769499147182   0.362164518543082   1.0
H8   H   0.839526937876471   0.575739908435331   0.636002896971483   1.0
H9   H   0.648280659772276   0.626891929500964   0.585935718348715   1.0
H10   H   0.266895253874658   0.564351732870072   0.545069139981003   1.0
H11   H   0.863314930203572   0.587552595778391   0.482467980174377   1.0
H12   H   0.965544019682163   0.644473486704570   0.591400975753714   1.0
H13   H   0.462606794670421   0.360141727782448   0.405538178156554   1.0
H14   H   0.146370728301193   0.379582112662426   0.409871235350153   1.0
H15   H   0.358380789535609   0.415131763185236   0.515499666594593   1.0
H16   H   0.130406154014317   0.488584766859248   0.572998524709604   1.0
H17   H   0.640654085427897   0.511907194008032   0.425489464398133   1.0
H18   H   0.767591861795879   0.436646634623777   0.457860481930268   1.0
O19   O   0.183800900053825   0.495551435549167   0.469209427467852   1.0
O20   O   0.680086425742225   0.509172128315669   0.529854235556854   1.0


# Number_of_total_atoms: 20
# Number_of_atom_type: 3
# Name_of_each_atom: C H O
# Number_of_each_atom: 6 12 2
# Created_by: Lihua Chen (lihua.chen@mse.gatech.edu)
# Tool: VASP
# K-points: 5 1 1
# Pseudopotential: PBE-HSE06
# Material_class: MC_Pol
# Geometry_class: GC_PD
# Bandgap_(eV): 5.34
