#======================================================================

# Note: Single chain of polycaprolactone 
# Common_name: Single chain

#----------------------------------------------------------------------

data_1
_audit_creation_method   'vasp2cif'
_cell_length_a    20.0
_cell_length_b    20.0
_cell_length_c    7.59007764247
_cell_angle_alpha    90.0
_cell_angle_beta    90.0
_cell_angle_gamma    90.0

_symmetry_space_group_name_H-M    'P 1'
loop_
_atom_site_label
_atom_site_type_symbol
_atom_site_fract_x
_atom_site_fract_y
_atom_site_fract_z
_atom_site_occupancy
C1   C   0.174363018564975   0.131648986675835   0.250000000009905   1.0
C2   C   0.193319792339501   0.099163711637267   0.750000015749670   1.0
C3   C   0.171130354036471   0.133128679597227   0.581831365135741   1.0
C4   C   0.196552467847738   0.097684018715874   0.418168666343782   1.0
C5   C   0.196552467847738   0.097684018715874   0.081831349395976   1.0
C6   C   0.171130354036471   0.133128679597227   0.918168666231502   1.0
H7   H   0.179964807206346   0.045389934055820   0.415704135666161   1.0
H8   H   0.187718003698137   0.185422770027607   0.584295864373473   1.0
H9   H   0.179964807206346   0.045389934055820   0.084295856427630   1.0
H10   H   0.187718003698137   0.185422770027607   0.915704104113978   1.0
H11   H   0.116306769537658   0.136084823766794   0.581299614208135   1.0
H12   H   0.251376052346565   0.094727874497814   0.418700385831499   1.0
H13   H   0.251376052346565   0.094727874497814   0.081299606262292   1.0
H14   H   0.116306769537658   0.136084823766794   0.918700354279316   1.0
O15   O   0.226941266357649   0.047535304219984   0.750000015749670   1.0
O16   O   0.140741533567095   0.183277399863435   0.250000000009905   1.0


# Number_of_total_atoms: 16
# Number_of_atom_type: 3
# Name_of_each_atom: C H O
# Number_of_each_atom: 6 8 2
# Created_by: Lihua Chen (lihua.chen@mse.gatech.edu)
# Tool: VASP
# K-points: 1 1 2
# Pseudopotential: PBE-HSE06
# Material_class: MC_Pol
# Geometry_class: GC_cry
# Bandgap_(eV): 5.96
