#======================================================================

# Note: Single chain of isotactic polymethyl methacrylate
# Common_name: Single chain

#----------------------------------------------------------------------

data_1
_audit_creation_method   'vasp2cif'
_cell_length_a    25.0
_cell_length_b    25.0000009744
_cell_length_c    20.6340007782
_cell_angle_alpha    90.8199997127
_cell_angle_beta    90.0
_cell_angle_gamma    89.9840026862

_symmetry_space_group_name_H-M    'P 1'
loop_
_atom_site_label
_atom_site_type_symbol
_atom_site_fract_x
_atom_site_fract_y
_atom_site_fract_z
_atom_site_occupancy
C1   C   0.404817112551996   0.495594466571688   0.507751539889483   1.0
C2   C   0.778053238713369   0.526073247337223   0.008762265187237   1.0
C3   C   0.424282140738519   0.554418335974916   0.731271026615175   1.0
C4   C   0.757648680087847   0.468237367854783   0.229828451324941   1.0
C5   C   0.463168474147501   0.393892111713740   0.597260745860318   1.0
C6   C   0.718180048889010   0.628413893837745   0.101139032650245   1.0
C7   C   0.681033332554492   0.629245556919827   0.263626093795068   1.0
C8   C   0.501803397794006   0.393713834530438   0.758867472272421   1.0
C9   C   0.675996164385417   0.526713477173878   0.261548262548779   1.0
C10   C   0.505999907160657   0.496106589050704   0.761087086573170   1.0
C11   C   0.699606175075552   0.376360828485552   0.128489920028635   1.0
C12   C   0.482138372990093   0.645863867517086   0.632622697488024   1.0
C13   C   0.433975981815394   0.445268630998527   0.825499426666006   1.0
C14   C   0.615959446772855   0.679184862237356   0.202944079518296   1.0
C15   C   0.567597416935193   0.345648252345001   0.694964553396566   1.0
C16   C   0.684810143213163   0.650494330515883   0.436867380823955   1.0
C17   C   0.498061958141221   0.372322461008821   0.931985511584251   1.0
C18   C   0.690091209523196   0.578247472818823   0.303280354012827   1.0
C19   C   0.663488111721712   0.333499304181764   0.810339992656921   1.0
C20   C   0.577152100633107   0.682189024855361   0.529533149568238   1.0
C21   C   0.605811335794037   0.340160477984732   0.022594373972133   1.0
C22   C   0.435893201227216   0.594374011878905   0.400028020869485   1.0
C23   C   0.747362164574149   0.427998585266181   0.896928900192641   1.0
C24   C   0.519147572322041   0.687918315672789   0.316109289012502   1.0
C25   C   0.492418237941493   0.444343636481939   0.800809500909295   1.0
C26   C   0.748588728326048   0.576936722864126   0.327740241100671   1.0
C27   C   0.545273085650784   0.587438839997112   0.560807638868411   1.0
C28   C   0.637259027832350   0.434901639262009   0.057865413966688   1.0
C29   C   0.494023420965434   0.589007568400113   0.605474354622316   1.0
C30   C   0.688124333550000   0.433228080558067   0.103083542651987   1.0
C31   C   0.444343567483749   0.471395493097809   0.665098899112053   1.0
C32   C   0.737314357734469   0.551154875088876   0.166302573187124   1.0
C33   C   0.510496899325069   0.549869852108714   0.661894939062975   1.0
C34   C   0.671415938497013   0.472479881138909   0.160710483898107   1.0
C35   C   0.469459384967315   0.517962615779588   0.704427830335675   1.0
C36   C   0.712418827941384   0.504596796883853   0.204190638437730   1.0
C37   C   0.738491079597587   0.453124976032768   0.067402945860870   1.0
C38   C   0.443953594631779   0.568851848013523   0.568702363242103   1.0
C39   C   0.580070479380836   0.354504263619567   0.865146855123996   1.0
C40   C   0.648156011543783   0.575706447822313   0.360546553535237   1.0
C41   C   0.534571074126745   0.446887862921031   0.857889423723073   1.0
C42   C   0.634047568915790   0.624420489852739   0.407161182393693   1.0
C43   C   0.548784933352501   0.398171996314097   0.902778178195504   1.0
C44   C   0.602345658042985   0.667905389498422   0.371252163138088   1.0
C45   C   0.503915047847677   0.636595821420116   0.465665531238528   1.0
C46   C   0.679242918322238   0.385982184536296   0.961068805829385   1.0
C47   C   0.599136878645837   0.597013972814011   0.461552417654325   1.0
C48   C   0.584008396193745   0.425569194135690   0.957788467462692   1.0
C49   C   0.556060535337437   0.627681341046468   0.503831593137377   1.0
C50   C   0.626891406109678   0.394802232091408   0.999212838024746   1.0
H51   H   0.441448347529992   0.621605564201388   0.359882607790929   1.0
H52   H   0.663666668461239   0.360520177748221   0.151690337206723   1.0
H53   H   0.517765575043725   0.661778703440135   0.656988220259279   1.0
H54   H   0.755205609924538   0.468356519350202   0.880259341936856   1.0
H55   H   0.741834229057069   0.400701146754002   0.855882486248710   1.0
H56   H   0.428190941844910   0.553972863691946   0.382016002388383   1.0
H57   H   0.779525116545514   0.413645946946268   0.927882887791398   1.0
H58   H   0.403636024491845   0.608689674593215   0.431360076992640   1.0
H59   H   0.595948884139204   0.313657507358705   0.981811057398851   1.0
H60   H   0.587169829663509   0.708855421588460   0.489894089855525   1.0
H61   H   0.635363731603270   0.319497502130353   0.051760031170104   1.0
H62   H   0.449377788659270   0.645286384998982   0.667453637633933   1.0
H63   H   0.547568021841300   0.702763210293575   0.559464919139920   1.0
H64   H   0.740072183435174   0.434897181210488   0.256311552324249   1.0
H65   H   0.441895834581736   0.587934844124398   0.758548102319672   1.0
H66   H   0.799245176373184   0.495262446119085   0.981397670642615   1.0
H67   H   0.384114485218674   0.526052336013208   0.480320136929443   1.0
H68   H   0.761425218937880   0.556250750953303   0.976937564407081   1.0
H69   H   0.421525341760095   0.464712300358549   0.475931141143860   1.0
H70   H   0.804684482011439   0.543975515753523   0.044872277033242   1.0
H71   H   0.377685056967699   0.478555264294663   0.543322426825362   1.0
H72   H   0.711618220256831   0.349255218843034   0.089226527766151   1.0
H73   H   0.470540912498571   0.672937439224512   0.594079754697873   1.0
H74   H   0.731945279947212   0.376896206049331   0.163920189471739   1.0
H75   H   0.569724896892758   0.346308679420609   0.051848040474305   1.0
H76   H   0.549195637107943   0.349761400312694   0.647483335301530   1.0
H77   H   0.638818878021567   0.679382483705673   0.158102511719392   1.0
H78   H   0.610919659489817   0.347214472742344   0.690635947817221   1.0
H79   H   0.573462165636080   0.675131083714582   0.192624939052365   1.0
H80   H   0.554514139801732   0.308730430316956   0.717549033904191   1.0
H81   H   0.624296557493771   0.715312921048138   0.231402309384556   1.0
H82   H   0.405740194444156   0.446036567536893   0.785229719539871   1.0
H83   H   0.776735979895207   0.576408677263750   0.287352644283658   1.0
H84   H   0.424540528569416   0.410131225572627   0.853791850866436   1.0
H85   H   0.758146807302900   0.611854104173190   0.357584178996184   1.0
H86   H   0.709613567942093   0.619691853453119   0.459162112247505   1.0
H87   H   0.473453294773058   0.403242663818183   0.955424743056724   1.0
H88   H   0.613155346652853   0.675828233838416   0.558666945137460   1.0
H89   H   0.639521945346814   0.302383242845920   0.787256999385910   1.0
H90   H   0.542839982844484   0.719201234426343   0.294064953580502   1.0
H91   H   0.685723702221473   0.356448298782887   0.774787412342640   1.0
H92   H   0.497250693620664   0.664655365510448   0.279749142748180   1.0
H93   H   0.492064458739385   0.705100912196528   0.352203728987156   1.0
H94   H   0.474421984661184   0.351940874538670   0.894736410210292   1.0
H95   H   0.708241644166762   0.670871846511432   0.400115411306757   1.0
H96   H   0.508436814735767   0.342616898408949   0.968038854459969   1.0
H97   H   0.674499809779313   0.680232538602411   0.473944034146911   1.0
H98   H   0.690342220068054   0.316204370996253   0.846015840101323   1.0
H99   H   0.397667822932043   0.532747224286069   0.763416110924148   1.0
H100   H   0.579754178313266   0.592071603154587   0.593370613782504   1.0
H101   H   0.602507576899875   0.430208305100542   0.089829934066195   1.0
H102   H   0.547200604084217   0.546846523642934   0.540517081519134   1.0
H103   H   0.635504131053892   0.475535288461671   0.039083133711095   1.0
H104   H   0.533974620115735   0.574765309411596   0.695693484227412   1.0
H105   H   0.648008079198817   0.447604670539370   0.193742697695690   1.0
H106   H   0.604982466489503   0.459540986940176   0.936918289048911   1.0
H107   H   0.537884189398092   0.519945093678970   0.641712349503841   1.0
H108   H   0.643938611049442   0.502257140624778   0.141427130544116   1.0
H109   H   0.427634681754455   0.480974603632681   0.855955811084300   1.0
H110   H   0.784426773332612   0.490024565977045   0.262396697680941   1.0
H111   H   0.508763665496183   0.529233016938328   0.796455297547702   1.0
H112   H   0.672824720803838   0.493550975090280   0.295667436198016   1.0
H113   H   0.546189674330584   0.489928276297761   0.741613144861653   1.0
H114   H   0.635902460601706   0.533355864083099   0.242204513145019   1.0
H115   H   0.578409018560485   0.562771156540116   0.439785040053508   1.0
H116   H   0.399763054288378   0.570368992794776   0.692265037175304   1.0
H117   H   0.781993615537132   0.452012920698792   0.190274627060312   1.0
H118   H   0.454732163744921   0.360568266692333   0.629205081995288   1.0
H119   H   0.729550064403064   0.660769586679237   0.134358905219081   1.0
H120   H   0.495861925911989   0.384486397569788   0.564060963156372   1.0
H121   H   0.684325735533655   0.639677554816551   0.070998416265709   1.0
H122   H   0.754894482877823   0.541014307945304   0.356571853174721   1.0
H123   H   0.752240530293314   0.616716139782689   0.071488517090579   1.0
H124   H   0.554872105061037   0.442306032664376   0.992357264700814   1.0
H125   H   0.427246537614359   0.404763187731064   0.570943873109528   1.0
H126   H   0.628427066181416   0.580705384210816   0.495664436127164   1.0
H127   H   0.572523886392332   0.460495237495742   0.837567105253569   1.0
H128   H   0.610133085375423   0.562033482559109   0.340015667282117   1.0
H129   H   0.520290494931800   0.478862576317724   0.890606345515444   1.0
H130   H   0.662632492572975   0.543767101097288   0.392079079164489   1.0
O131   O   0.731463893628550   0.503133391152105   0.042040183850467   1.0
O132   O   0.401963703240064   0.593642622940543   0.564109743175372   1.0
O133   O   0.780396978973883   0.428160643124912   0.062327092714291   1.0
O134   O   0.451261452644438   0.518801199009523   0.541852662916149   1.0
O135   O   0.396349096135111   0.462735626212883   0.660238616288730   1.0
O136   O   0.785241656798668   0.560153128403712   0.161723503684250   1.0
O137   O   0.482629123141962   0.439523697917629   0.636441042434519   1.0
O138   O   0.698828193774609   0.582778294565287   0.138737802024544   1.0
O139   O   0.697550504282972   0.432521332164015   0.934288706230824   1.0
O140   O   0.468787116157735   0.358763682942538   0.747646370485334   1.0
O141   O   0.714231186436166   0.664162302204311   0.254267615416325   1.0
O142   O   0.629460714806584   0.631714961577416   0.240655468908301   1.0
O143   O   0.553534952112066   0.391840111413600   0.736164980549816   1.0
O144   O   0.617373166893081   0.713986445090782   0.364062771293973   1.0
O145   O   0.564350098154591   0.308756027580181   0.855581207166672   1.0
O146   O   0.554117324089404   0.649093979169486   0.348561303624926   1.0
O147   O   0.628796200388152   0.372711792079663   0.843906634339454   1.0
O148   O   0.479794844923084   0.679060388257390   0.462404562792344   1.0
O149   O   0.703488592780914   0.343573406869119   0.956664986744634   1.0
O150   O   0.485622851540285   0.589996040980289   0.437409121654163   1.0


# Number_of_total_atoms: 150
# Number_of_atom_type: 3
# Name_of_each_atom: C H O
# Number_of_each_atom: 50 80 20
# Created_by: Lihua Chen (lihua.chen@mse.gatech.edu)
# Tool: VASP
# K-points: 1 1 1
# Pseudopotential: PBE-HSE06
# Material_class: MC_Pol
# Geometry_class: GC_PD
# Bandgap_(eV): 6.32
