#======================================================================

# Note: Single chain of isotactic polyethyl acrylate
# Common_name: Single chain

#----------------------------------------------------------------------

data_1
_audit_creation_method   'vasp2cif'
_cell_length_a    20.0
_cell_length_b    6.22679996492
_cell_length_c    20.0
_cell_angle_alpha    90.0
_cell_angle_beta    90.0
_cell_angle_gamma    83.9100036617

_symmetry_space_group_name_H-M    'P 1'
loop_
_atom_site_label
_atom_site_type_symbol
_atom_site_fract_x
_atom_site_fract_y
_atom_site_fract_z
_atom_site_occupancy
C1   C   0.545873120405780   0.577492622236129   0.463816104421269   1.0
C2   C   0.550548020994597   0.823058013352778   0.468775530249239   1.0
C3   C   0.535607246217772   0.914520682104111   0.539812637676526   1.0
C4   C   0.527676866548596   0.164066286255881   0.540332368619417   1.0
C5   C   0.472064926916637   0.273508438147203   0.492948443409588   1.0
C6   C   0.477155868245895   0.517790039819111   0.490388426970846   1.0
C7   C   0.588827278111900   0.827568959272831   0.590825936746498   1.0
C8   C   0.556461968453171   0.489330584549776   0.392980701737706   1.0
C9   C   0.401827934177383   0.230785085134968   0.516558864329852   1.0
C10   C   0.618417640593975   0.832017951279909   0.708967867426907   1.0
C11   C   0.679459554323593   0.959647558666020   0.709504768216441   1.0
C12   C   0.506545061983623   0.489575865344513   0.281914687342180   1.0
C13   C   0.462612287059223   0.303404061335307   0.283953501110482   1.0
C14   C   0.326446673315992   0.948065188630174   0.528929777021411   1.0
C15   C   0.333155034361965   0.899031411482632   0.603487753040170   1.0
H16   H   0.587068007790428   0.496970049971182   0.493065267028790   1.0
H17   H   0.600721191795330   0.859079729019072   0.453192000480477   1.0
H18   H   0.514346821760377   0.904114910671289   0.433830227045498   1.0
H19   H   0.488267158252107   0.864361654440664   0.558065678712055   1.0
H20   H   0.517043024675125   0.222682818504211   0.591297966972554   1.0
H21   H   0.575873686117561   0.217377780820186   0.525607380286544   1.0
H22   H   0.478974818019708   0.204531765597991   0.442808012195421   1.0
H23   H   0.469067746473890   0.579206317031471   0.541187052106629   1.0
H24   H   0.436724394818043   0.598336594844397   0.459596419459970   1.0
H25   H   0.587561572309795   0.862762560648953   0.753620141995434   1.0
H26   H   0.632983833300422   0.658782642805647   0.703657776180059   1.0
H27   H   0.709845809541605   0.916165764927200   0.754017351606677   1.0
H28   H   0.663748921247674   0.133364229655726   0.711087994827849   1.0
H29   H   0.710673252230031   0.923351155188378   0.665344227375904   1.0
H30   H   0.484602351918809   0.622225271180561   0.250604074066977   1.0
H31   H   0.557574238099086   0.436602561013288   0.265311737963941   1.0
H32   H   0.456405078949750   0.241470932760727   0.233313873462755   1.0
H33   H   0.412750448517926   0.358138310321827   0.303922862605738   1.0
H34   H   0.485643817247805   0.170685002977812   0.314862531368014   1.0
H35   H   0.284805464945116   0.070989780490329   0.518137210021173   1.0
H36   H   0.321420099476732   0.802046799326490   0.500126351722813   1.0
H37   H   0.288599134678563   0.826376274761131   0.620400999032299   1.0
H38   H   0.337292687326844   0.046049356315820   0.632300050191716   1.0
H39   H   0.376923496703704   0.782377974869327   0.613088136895769   1.0
O40   O   0.639650236407896   0.705910378558954   0.579154992521062   1.0
O41   O   0.571404447187803   0.902311863969402   0.653961582989190   1.0
O42   O   0.598442253130678   0.340617632669236   0.376990318617970   1.0
O43   O   0.509729991403134   0.588411391566815   0.349066255687831   1.0
O44   O   0.361872333323632   0.361278281062660   0.545879502227152   1.0
O45   O   0.389223957488859   0.024007663420498   0.501604769583118   1.0


# Number_of_total_atoms: 45
# Number_of_atom_type: 3
# Name_of_each_atom: C H O
# Number_of_each_atom: 15 24 6
# Created_by: Lihua Chen (lihua.chen@mse.gatech.edu)
# Tool: VASP
# K-points: 1 5 1
# Pseudopotential: PBE-HSE06
# Material_class: MC_Pol
# Geometry_class: GC_PD
# Bandgap_(eV): 6.34
