#======================================================================

# Note: Single chain of polyvinylidene fluoride (gamma)
# Common_name: Single chain

#----------------------------------------------------------------------

data_1
_audit_creation_method   'vasp2cif'
_cell_length_a    20.0
_cell_length_b    8.88259983064
_cell_length_c    20.0
_cell_angle_alpha    90.0
_cell_angle_beta    90.0
_cell_angle_gamma    89.9994964601

_symmetry_space_group_name_H-M    'P 1'
loop_
_atom_site_label
_atom_site_type_symbol
_atom_site_fract_x
_atom_site_fract_y
_atom_site_fract_z
_atom_site_occupancy
C1   C   0.112443568190265   0.027449619445108   0.256731176678819   1.0
C2   C   0.173587370987242   0.287368758714656   0.257143336981699   1.0
C3   C   0.106822730903019   0.527431395719013   0.256566461178998   1.0
C4   C   0.045625461823718   0.787404221793935   0.256567050474622   1.0
C5   C   0.178491147878503   0.113810499234894   0.256619978014307   1.0
C6   C   0.103677285600114   0.357220655723182   0.256412272093684   1.0
C7   C   0.040784077541460   0.613827426900926   0.256529253236408   1.0
C8   C   0.115534546732299   0.857251944130496   0.256502376437275   1.0
F9   F   0.216809826859091   0.072186559228413   0.200219838764802   1.0
F10   F   0.066973122056346   0.305813460830492   0.312575545601355   1.0
F11   F   0.002177364334138   0.571563955262405   0.312657599608329   1.0
F12   F   0.151578879386797   0.806299263089350   0.199845698494897   1.0
F13   F   0.217360935212476   0.070907064197051   0.312475818880635   1.0
F14   F   0.068062123764250   0.306245024603164   0.199483588466627   1.0
F15   F   0.002246968458429   0.571477956241921   0.200384617055214   1.0
F16   F   0.151784287532102   0.805766657254942   0.312954619605414   1.0
H17   H   0.083942819322004   0.062194557963565   0.212880369129913   1.0
H18   H   0.199268113156549   0.327736977975306   0.301902957532867   1.0
H19   H   0.135082332589953   0.561583003015500   0.300663968484372   1.0
H20   H   0.019133620555877   0.828588869772013   0.212418839462444   1.0
H21   H   0.084277403240414   0.061498191905635   0.300910176135858   1.0
H22   H   0.200692878655111   0.329298005061581   0.213514815021156   1.0
H23   H   0.135258548844504   0.561953293530550   0.212636817148542   1.0
H24   H   0.019286649315291   0.828442693026325   0.300820955411787   1.0


# Number_of_total_atoms: 24
# Number_of_atom_type: 3
# Name_of_each_atom: C F H
# Number_of_each_atom: 8 8 8
# Created_by: Lihua Chen (lihua.chen@mse.gatech.edu)
# Tool: VASP
# K-points: 1 6 1
# Pseudopotential: PBE-HSE06
# Material_class: MC_Pol
# Geometry_class: GC_PD
# Bandgap_(eV): 8.36
