#======================================================================

# Note: Ordered slab of polyethylene
# Common_name: Ordered slab-100

#----------------------------------------------------------------------

data_1
_audit_creation_method   'vasp2cif'
_cell_length_a    30.0
_cell_length_b    4.7017297745
_cell_length_c    2.5638899803
_cell_angle_alpha    90.0
_cell_angle_beta    90.0
_cell_angle_gamma    90.0

_symmetry_space_group_name_H-M    'P 1'
loop_
_atom_site_label
_atom_site_type_symbol
_atom_site_fract_x
_atom_site_fract_y
_atom_site_fract_z
_atom_site_occupancy
C1   C   0.330004903223688   0.061609546321385   0.249999113803661   1.0
C2   C   0.549762630820759   0.931644998822911   0.749999585468629   1.0
C3   C   0.430439712890497   0.559732297059526   0.750000671772689   1.0
C4   C   0.450237387758158   0.431644852513926   0.250000786728691   1.0
C5   C   0.569560242166503   0.059732264037862   0.249999501958328   1.0
C6   C   0.308299228877303   0.946685068483802   0.749999464549369   1.0
C7   C   0.669995143899129   0.561610314229590   0.750000614555866   1.0
C8   C   0.691700820448283   0.446685699185551   0.250000487294557   1.0
H9   H   0.365699129430723   0.008214832000149   0.249999266540513   1.0
H10   H   0.328066422893564   0.295239030160538   0.249999287713102   1.0
H11   H   0.513417338056954   0.962524706805695   0.749999474361417   1.0
H12   H   0.555306950811243   0.700406887809187   0.749999609170992   1.0
H13   H   0.435994182610614   0.790990272854899   0.750000950999556   1.0
H14   H   0.394087494992235   0.529104008289032   0.749999898145028   1.0
H15   H   0.444692953898013   0.200406834912577   0.250001077148831   1.0
H16   H   0.486582710479013   0.462524377792846   0.250000944852523   1.0
H17   H   0.605912567604058   0.029104767778740   0.249999498763330   1.0
H18   H   0.564005611234712   0.290990673839694   0.249999632908342   1.0
H19   H   0.272613702530670   0.000954548949437   0.749999324683934   1.0
H20   H   0.310100010942215   0.712891752567039   0.749999288736845   1.0
H21   H   0.671933597170103   0.795239725721729   0.750000338589864   1.0
H22   H   0.634300946698353   0.508215210396401   0.749999866622460   1.0
H23   H   0.689899976741955   0.212892675628971   0.250001107125094   1.0
H24   H   0.727386365621257   0.500954806122905   0.250000206102250   1.0


# Number_of_total_atoms: 24
# Number_of_atom_type: 2
# Name_of_each_atom: C H
# Number_of_each_atom: 8 16
# Created_by: Lihua Chen (lihua.chen@mse.gatech.edu)
# Tool: VASP
# K-points: 1 6 12
# Pseudopotential: PBE-HSE06
# Material_class: MC_Pol
# Geometry_class: GC_PD
# Bandgap_(eV): 6.72
