#======================================================================

# Note: Ordered slab of polyethylene oxide
# Common_name: Ordered slab-100

#----------------------------------------------------------------------

data_1
_audit_creation_method   'vasp2cif'
_cell_length_a    30.0
_cell_length_b    12.1316995621
_cell_length_c    18.9993991852
_cell_angle_alpha    90.0
_cell_angle_beta    90.0
_cell_angle_gamma    90.0

_symmetry_space_group_name_H-M    'P 1'
loop_
_atom_site_label
_atom_site_type_symbol
_atom_site_fract_x
_atom_site_fract_y
_atom_site_fract_z
_atom_site_occupancy
C1   C   0.295783879453367   0.769539445624730   0.826428679950865   1.0
C2   C   0.527589410968787   0.772132782801087   0.586230814558313   1.0
C3   C   0.408853758523385   0.723946381960339   0.703707491455404   1.0
C4   C   0.635962874384454   0.731494246287426   0.459506800026432   1.0
C5   C   0.278628150079165   0.268489257509138   0.025567917293657   1.0
C6   C   0.505629976941286   0.276085094483299   0.781269163152757   1.0
C7   C   0.346553277570664   0.126843249412857   0.808671864189783   1.0
C8   C   0.579212729205146   0.126787571834434   0.569890780207658   1.0
C9   C   0.335172600603265   0.873065375161396   0.915023568984054   1.0
C10   C   0.567838408229491   0.873076152838024   0.676369980776123   1.0
C11   C   0.448853012196082   0.629783891335414   0.796342975546821   1.0
C12   C   0.673802119323192   0.641806617643354   0.555510742494576   1.0
C13   C   0.240657608595924   0.358263902902934   0.929704748755562   1.0
C14   C   0.465649053528580   0.370288828471850   0.688660601147674   1.0
C15   C   0.359760620811777   0.044265073916122   0.752670504730538   1.0
C16   C   0.591827432327619   0.043890732134848   0.514004200085402   1.0
C17   C   0.322657909075559   0.956074102663941   0.970904603455558   1.0
C18   C   0.554580363090750   0.955642370537241   0.732350498928945   1.0
C19   C   0.437559501127851   0.548417242575852   0.853980592357701   1.0
C20   C   0.663197200175574   0.556401689017271   0.611291401068989   1.0
C21   C   0.251252281508492   0.443516831057501   0.873822352625325   1.0
C22   C   0.476905925254194   0.451648619864173   0.631002039251570   1.0
C23   C   0.451422476192555   0.060328623920611   0.621101231411906   1.0
C24   C   0.681349915572738   0.064812601709647   0.378925179065519   1.0
C25   C   0.233103205265756   0.935223257635855   0.106004999939273   1.0
C26   C   0.462976021996362   0.939608601881076   0.864000851158885   1.0
C27   C   0.348397481295542   0.565087474512161   0.989575725913646   1.0
C28   C   0.574042617396778   0.567175940024008   0.746509620634285   1.0
C29   C   0.340430562061847   0.432723292700715   0.738602821047913   1.0
C30   C   0.566070631837711   0.435005844871384   0.495424094844395   1.0
C31   C   0.418463923905769   0.005234274226801   0.669908721763001   1.0
C32   C   0.650687631145615   0.009648861551227   0.431482787640228   1.0
C33   C   0.263831880705276   0.990316509759097   0.053513667844491   1.0
C34   C   0.495878661467067   0.994715710424856   0.815104451770715   1.0
C35   C   0.380671845072563   0.509657244553424   0.939786674497640   1.0
C36   C   0.607870845815867   0.512964640127528   0.698914029474686   1.0
C37   C   0.386863165540156   0.227853694086527   0.898707338542359   1.0
C38   C   0.618484627198193   0.230361137402923   0.658583918713944   1.0
C39   C   0.454793408407035   0.168590479386928   0.515267781309269   1.0
C40   C   0.678721759672982   0.156035572274632   0.266269347390462   1.0
C41   C   0.312803648989686   0.287302120406082   0.082874294783998   1.0
C42   C   0.541579211944814   0.290851304232817   0.836493697137712   1.0
C43   C   0.260541866697054   0.778958552274680   0.769560887389936   1.0
C44   C   0.492657423643521   0.785284802892804   0.529146744806027   1.0
C45   C   0.325473483662279   0.082785233674507   0.254408751921659   1.0
C46   C   0.555440564315283   0.080676503165925   0.010616336509102   1.0
C47   C   0.358963167899574   0.919316701968675   0.474287643516178   1.0
C48   C   0.589125964960822   0.917145809035063   0.230541515540310   1.0
C49   C   0.470261174902134   0.576086583780878   0.354795804282155   1.0
C50   C   0.702084464501418   0.586614023349952   0.109480618089925   1.0
C51   C   0.212425897493262   0.413163599428991   0.375322380663661   1.0
C52   C   0.444284559256360   0.424000629833195   0.130140565413740   1.0
C53   C   0.356824449290691   0.023623804612662   0.204831797988064   1.0
C54   C   0.588924914574939   0.027548148536319   0.961899887487689   1.0
C55   C   0.325520140886297   0.972505577677623   0.523052033936168   1.0
C56   C   0.557744764995626   0.976287023359802   0.280084398785725   1.0
C57   C   0.437101658069786   0.518303556444977   0.401937804427185   1.0
C58   C   0.672393344444842   0.522149044403392   0.159085323245662   1.0
C59   C   0.242123054282061   0.477665650588925   0.325740502168863   1.0
C60   C   0.477392448791569   0.481831874089004   0.082938716397074   1.0
C61   C   0.435333339590215   0.128895557249699   0.067855568909927   1.0
C62   C   0.666841608503880   0.152431699030252   0.831958858449525   1.0
C63   C   0.247591405648251   0.847563171837066   0.652944350083068   1.0
C64   C   0.479189760655068   0.871124677124506   0.417046763255520   1.0
C65   C   0.357341752449869   0.621867337924762   0.537483952387817   1.0
C66   C   0.590489835951871   0.618166200404275   0.292642449879814   1.0
C67   C   0.324184835513869   0.381864360373662   0.192363105507738   1.0
C68   C   0.557175320900747   0.378193415556176   0.947448424664081   1.0
C69   C   0.415340304337540   0.049966631271999   0.120812239909021   1.0
C70   C   0.649887655041091   0.068744876464670   0.884754440258320   1.0
C71   C   0.264559703574321   0.931343858860075   0.600219248001665   1.0
C72   C   0.499229631601295   0.949988275033704   0.364092018738582   1.0
C73   C   0.377325634544299   0.544593015996810   0.483515601472277   1.0
C74   C   0.612705264357380   0.540153096398114   0.241550098444719   1.0
C75   C   0.301932605364407   0.459768136852752   0.243490187545518   1.0
C76   C   0.537196550330975   0.455497234870158   0.001403536889796   1.0
C77   C   0.421813261508682   0.214731764744215   0.955763782891850   1.0
C78   C   0.653784265943507   0.221060730649199   0.715369903386147   1.0
C79   C   0.372913306223019   0.709133781722869   0.648470226044985   1.0
C80   C   0.601856498858574   0.712714419235652   0.402098372686496   1.0
C81   C   0.235563321639837   0.843916733876071   0.218644802667576   1.0
C82   C   0.459749772655563   0.831451002317479   0.969884334600962   1.0
C83   C   0.306510387980708   0.486817652833246   0.786092355235098   1.0
C84   C   0.533762553324834   0.490416046985622   0.545161139085089   1.0
C85   C   0.345311471467156   0.317091444900519   0.636653106108703   1.0
C86   C   0.567445642542246   0.322381549882628   0.391476133330421   1.0
C87   C   0.347122061402445   0.677619807544538   0.093585640821360   1.0
C88   C   0.569292281731684   0.683066187908224   0.848319522576361   1.0
C89   C   0.216602976552224   0.313967023655024   0.485088809376428   1.0
C90   C   0.441042809959022   0.310923461116026   0.234759423214790   1.0
C91   C   0.473577022179235   0.689197187713930   0.250185783486074   1.0
C92   C   0.697971476597701   0.686102545594984   0.999860377239500   1.0
C93   C   0.362788510828935   0.809104544514291   0.368863775869805   1.0
C94   C   0.587677685148172   0.809147337388502   0.123921055147214   1.0
C95   C   0.326968007115511   0.190761888960111   0.361021187499084   1.0
C96   C   0.551508699573176   0.190870785417765   0.116038461510229   1.0
C97   C   0.444233632299479   0.760699012567166   0.204245902742464   1.0
C98   C   0.666451060395183   0.758393528203868   0.958058143242205   1.0
C99   C   0.248156463970958   0.241773278961460   0.526906879865123   1.0
C100   C   0.470402445309183   0.239426196350436   0.280672254176238   1.0
C101   C   0.358485445539515   0.259198966252406   0.405205942485630   1.0
C102   C   0.581068051980729   0.259476647866421   0.163320847584544   1.0
C103   C   0.317036000721558   0.243573734082112   0.590836944803925   1.0
C104   C   0.538285733882987   0.246397511170784   0.348627488688749   1.0
C105   C   0.376310051028255   0.753642652027416   0.136366753985911   1.0
C106   C   0.597617589405914   0.756624416338681   0.894024885207749   1.0
C107   C   0.263623805484684   0.761215702482424   0.258717950761230   1.0
C108   C   0.487427941229157   0.753855922065789   0.014080292076791   1.0
C109   C   0.427160961930049   0.246158774841938   0.470978009080326   1.0
C110   C   0.650638664518915   0.238693328987352   0.226206497301213   1.0
C111   C   0.333181512504289   0.740491666936279   0.321659198436556   1.0
C112   C   0.556163610208600   0.740751699339725   0.079702757020826   1.0
H113   H   0.429715896128066   0.467567425117224   0.830939932090622   1.0
H114   H   0.657138427166899   0.475931670666114   0.586129019296564   1.0
H115   H   0.466136830661405   0.537032405731672   0.889542245816351   1.0
H116   H   0.691422113191209   0.547618247344708   0.648060418837041   1.0
H117   H   0.222998435449668   0.452250924990594   0.837103237567085   1.0
H118   H   0.448302555189081   0.463053284113506   0.595494758675265   1.0
H119   H   0.367962565593395   0.964659568785343   0.777050952388763   1.0
H120   H   0.603853940700532   0.968075433183671   0.539259161354153   1.0
H121   H   0.310505595019208   0.031752875974334   0.945636424201211   1.0
H122   H   0.546436104359060   0.035271602165572   0.707952515707881   1.0
H123   H   0.257339351309923   0.524041771693426   0.898894995944858   1.0
H124   H   0.484774058298932   0.532497118003946   0.654022369729816   1.0
H125   H   0.398583101632994   0.789640092804504   0.740285636698026   1.0
H126   H   0.624559832918237   0.798430918812336   0.494162319590195   1.0
H127   H   0.287317045735008   0.044289231302045   0.081675752653247   1.0
H128   H   0.521823138813140   0.036707294915843   0.846052781087195   1.0
H129   H   0.407553386146532   0.470194607849443   0.970099038461520   1.0
H130   H   0.635835671287545   0.481940291136553   0.730855798581501   1.0
H131   H   0.278538964849481   0.517612905792063   0.754070577576009   1.0
H132   H   0.506888000364881   0.529847551600994   0.514814782347642   1.0
H133   H   0.289973497388544   0.201505536747582   0.990901438565494   1.0
H134   H   0.515841661766231   0.210240579268913   0.744759405516888   1.0
H135   H   0.351566992333844   0.978202196316474   0.003403677638019   1.0
H136   H   0.582370014343724   0.969633821570483   0.769079012481107   1.0
H137   H   0.285376351050168   0.706303736730177   0.864683480572879   1.0
H138   H   0.515557792403918   0.711691615167950   0.625129154717527   1.0
H139   H   0.392563336980288   0.963189762210391   0.638897848481243   1.0
H140   H   0.627127359192464   0.955831758964592   0.403355055952304   1.0
H141   H   0.331928768003323   0.030213776520895   0.716031847825633   1.0
H142   H   0.562984041174069   0.022001856565780   0.481289498985298   1.0
H143   H   0.367149474449924   0.895564881611101   0.890923623735880   1.0
H144   H   0.600778320542922   0.894768251981034   0.655022841711840   1.0
H145   H   0.450308999537313   0.713452359574731   0.818161224804193   1.0
H146   H   0.672525176721358   0.724506592139981   0.579278332978369   1.0
H147   H   0.398875931135791   0.288303105221729   0.859799643734874   1.0
H148   H   0.628801704121734   0.293675306850027   0.620322400887162   1.0
H149   H   0.251902820339495   0.695934861492766   0.750388069645915   1.0
H150   H   0.481634848263454   0.704216697103014   0.510132553559814   1.0
H151   H   0.363206762949808   0.789455994550039   0.626871840692878   1.0
H152   H   0.591241164678138   0.791600343077626   0.379521204141476   1.0
H153   H   0.323392978654617   0.208438543173514   0.105513459918946   1.0
H154   H   0.551206859122217   0.210542298898545   0.858195524004032   1.0
H155   H   0.355472360407326   0.259227267912756   0.920996261957889   1.0
H156   H   0.586496022352165   0.256387498311561   0.681636750522827   1.0
H157   H   0.327770578372494   0.743332306766739   0.803454471954943   1.0
H158   H   0.558982952815555   0.740737487805184   0.563960644038104   1.0
H159   H   0.241789454652690   0.275505256254917   0.906002306551564   1.0
H160   H   0.464124458311382   0.286628112091982   0.666836550656214   1.0
H161   H   0.440447807001298   0.749189093639202   0.678824329226444   1.0
H162   H   0.668149341057628   0.755402045429371   0.436015469191112   1.0
H163   H   0.246468713515007   0.244645728139531   0.049176709340479   1.0
H164   H   0.474008834397686   0.251085206118986   0.806169036766683   1.0
H165   H   0.313639487230930   0.105141232496663   0.830118603629380   1.0
H166   H   0.547222150514386   0.104112224519156   0.593879630008175   1.0
H167   H   0.481436528393658   0.609929446098640   0.773418605965162   1.0
H168   H   0.707421241201338   0.628311203305636   0.533810155899822   1.0
H169   H   0.207092446644339   0.372045886185113   0.951541056604924   1.0
H170   H   0.433104506464396   0.390222080741971   0.711697811086616   1.0
H171   H   0.344479589631675   0.209619751771122   0.785936752692727   1.0
H172   H   0.575905190809465   0.209037250809466   0.546499789626750   1.0
H173   H   0.338452340990905   0.790838344597162   0.938455338510430   1.0
H174   H   0.569875339643048   0.790273976332102   0.699078751999785   1.0
H175   H   0.432783540288803   0.295814765171379   0.974827004945560   1.0
H176   H   0.662370365324627   0.304101540937246   0.734567654919999   1.0
H177   H   0.191718964948478   0.353748146983961   0.346116934702387   1.0
H178   H   0.420228958235171   0.375651162940734   0.098966550823967   1.0
H179   H   0.426905316738214   0.821641344377859   0.237394169689217   1.0
H180   H   0.652374981315511   0.821944610013766   0.992975821627653   1.0
H181   H   0.382707231698959   0.867886750980993   0.504069226266658   1.0
H182   H   0.613265972744536   0.865696290343038   0.259505471203411   1.0
H183   H   0.353699374871482   0.423525357424332   0.170498856633529   1.0
H184   H   0.587576421548398   0.416965850915723   0.925914962596892   1.0
H185   H   0.326985783930432   0.582981019518499   0.559092102692475   1.0
H186   H   0.560999848179392   0.576543314335979   0.314623268484908   1.0
H187   H   0.214040729724509   0.872340836094232   0.670594225729580   1.0
H188   H   0.449676053769181   0.910989640406704   0.440153522023145   1.0
H189   H   0.464888485056591   0.089196320795899   0.044779087933357   1.0
H190   H   0.700388096462348   0.127608968228167   0.814308931910958   1.0
H191   H   0.286898715754297   0.528199451885762   0.213928797517689   1.0
H192   H   0.526036727201031   0.531245189419984   0.975080876001314   1.0
H193   H   0.388521321915263   0.468875213634597   0.509837910127899   1.0
H194   H   0.627794641223232   0.471842323867449   0.271154223067917   1.0
H195   H   0.441660899146591   0.021957589871825   0.157375154507967   1.0
H196   H   0.675815445637078   0.052599535948339   0.924656475824825   1.0
H197   H   0.271825327328472   0.009102855950850   0.627781900048404   1.0
H198   H   0.512139755786663   0.022618244752771   0.391942199774540   1.0
H199   H   0.335312993822662   0.306401183557725   0.218931205606033   1.0
H200   H   0.566712647250945   0.299312167562285   0.971223327297089   1.0
H201   H   0.347725283328053   0.700687070487724   0.513704092111702   1.0
H202   H   0.579324578059392   0.693553362177468   0.266023814280402   1.0
H203   H   0.245313020230810   0.765288798715929   0.628568703610426   1.0
H204   H   0.468358345214398   0.794404928191241   0.391789731668496   1.0
H205   H   0.446085857204238   0.205673743385667   0.093124073896476   1.0
H206   H   0.669128790366415   0.234755103920236   0.856265255305175   1.0
H207   H   0.264533683754436   0.530484580037360   0.356939082157361   1.0
H208   H   0.502307092129946   0.523902865109818   0.115955799946121   1.0
H209   H   0.412186925737061   0.476308964101307   0.368878567513043   1.0
H210   H   0.649943091340127   0.469377823431607   0.127918974579593   1.0
H211   H   0.402395425301393   0.977382429434599   0.092953697270566   1.0
H212   H   0.642658354658685   0.990911423507626   0.857258112474405   1.0
H213   H   0.494315134544102   0.624372797535031   0.386011857371138   1.0
H214   H   0.722815464258986   0.645992334090963   0.138677844832294   1.0
H215   H   0.238626518466894   0.947638403436571   0.560349805539012   1.0
H216   H   0.472938406616208   0.977940318915934   0.327457117864185   1.0
H217   H   0.327081566109179   0.493851391442682   0.279874010636085   1.0
H218   H   0.562932174936883   0.478320962518232   0.040309314477618   1.0
H219   H   0.301355674465526   0.134334525775138   0.225471120681192   1.0
H220   H   0.531708098361946   0.132084782015745   0.980799321944126   1.0
H221   H   0.190281157929661   0.471341698454779   0.402956883379751   1.0
H222   H   0.425908723524692   0.487542615016338   0.159507343432878   1.0
H223   H   0.488636256498601   0.512522530454234   0.325449433279594   1.0
H224   H   0.724209482104520   0.528420513357027   0.081820762238749   1.0
H225   H   0.377607569480759   0.985003764167267   0.447354941812577   1.0
H226   H   0.607496782513756   0.979726887772514   0.200443564418983   1.0
H227   H   0.436165616093724   0.943702597844968   0.701786720153279   1.0
H228   H   0.670663609504281   0.958345989684716   0.467515165500728   1.0
H229   H   0.307070339481982   0.020230110015674   0.284480661948422   1.0
H230   H   0.536798313874542   0.014943360395151   0.037505102256318   1.0
H231   H   0.351577795481809   0.521705258635954   0.444643803549795   1.0
H232   H   0.587527090371893   0.505910271435866   0.205281858983341   1.0
H233   H   0.342785175867888   0.326676933088798   0.060765278009178   1.0
H234   H   0.571743308611794   0.327145782372185   0.812803690786978   1.0
H235   H   0.230211738762691   0.817522218065150   0.791102057882270   1.0
H236   H   0.463023402898173   0.827457039697926   0.550368060029570   1.0
H237   H   0.451470802879619   0.172713744649322   0.934499330755919   1.0
H238   H   0.684125770417658   0.182664391416608   0.693748741636355   1.0
H239   H   0.221459075785042   0.530906484896960   0.291848076606243   1.0
H240   H   0.459578316310576   0.543610839726540   0.051576230133506   1.0
H241   H   0.454873549789078   0.456461698176866   0.433309058592634   1.0
H242   H   0.693060865173017   0.468852109157915   0.192936883976820   1.0
H243   H   0.342699272210290   0.032440980725603   0.556559656844428   1.0
H244   H   0.576785819706920   0.034791222784243   0.312167224171745   1.0
H245   H   0.337754353308199   0.965257357905777   0.172685732833280   1.0
H246   H   0.571787260254439   0.967519401333860   0.928407692172385   1.0
H247   H   0.342785963038025   0.672595806467434   0.672125529927499   1.0
H248   H   0.571880496294163   0.673179551236430   0.424107363335409   1.0
H249   H   0.243890168337288   0.041457546368392   0.017341991750669   1.0
H250   H   0.478146143611340   0.056302192250413   0.783310266623133   1.0
H251   H   0.381571763804352   0.977722481768538   0.235985644471924   1.0
H252   H   0.614235327323506   0.984602267552923   0.993602063360193   1.0
H253   H   0.322328825021522   0.555809485342884   0.813871383965960   1.0
H254   H   0.551547076053915   0.553698832839004   0.575406531325228   1.0
H255   H   0.390495925026514   0.816572033624681   0.101271329955367   1.0
H256   H   0.613549707474455   0.819568300686910   0.860709598424997   1.0
H257   H   0.301110176115451   0.180534111771713   0.624082017039989   1.0
H258   H   0.524021442139357   0.183550117075122   0.383703354557902   1.0
H259   H   0.375771747521533   0.318567033873293   0.370953662321099   1.0
H260   H   0.600706098277200   0.316319086108407   0.130504703223380   1.0
H261   H   0.313575771181206   0.683647853921727   0.354523140765757   1.0
H262   H   0.538866973543897   0.681387900582344   0.113944112015559   1.0
H263   H   0.300222446044714   0.015576091456019   0.491394175685535   1.0
H264   H   0.532967751192473   0.022037727767199   0.248895113247329   1.0
H265   H   0.262197833177496   0.178131384419523   0.492025159334233   1.0
H266   H   0.487702953213372   0.178444017949005   0.247518537728325   1.0
H267   H   0.339722573625046   0.305231819753203   0.445339817677251   1.0
H268   H   0.560833979812998   0.307715291078949   0.200470542114729   1.0
H269   H   0.353383965581337   0.692250761562647   0.284465123693302   1.0
H270   H   0.574926649288479   0.694717368639814   0.039569300013198   1.0
H271   H   0.272078661351770   0.692473179533700   0.223428454884939   1.0
H272   H   0.500621773358155   0.688298912797606   0.979942481955149   1.0
H273   H   0.464773416184443   0.805358026418787   0.165560982267216   1.0
H274   H   0.684980857893308   0.800193366084727   0.915547883497354   1.0
H275   H   0.298961137992748   0.242251114726152   0.343674400698312   1.0
H276   H   0.525166362624681   0.243168602484765   0.094116328646621   1.0
H277   H   0.362860687052979   0.446389878977321   0.909566328713105   1.0
H278   H   0.591964354741748   0.444132041278095   0.671098930217184   1.0
H279   H   0.501145946550466   0.739079883104793   0.270763984189813   1.0
H280   H   0.726684728700576   0.735877207893580   0.017241945310424   1.0
H281   H   0.187858139719978   0.264169756055978   0.467861926681650   1.0
H282   H   0.413467509686846   0.261031251396666   0.214209703509674   1.0
H283   H   0.313922807548501   0.120572329506317   0.391515178613425   1.0
H284   H   0.536137825120065   0.122575221938767   0.145696919092906   1.0
H285   H   0.378141716558062   0.877373701820922   0.339160865459888   1.0
H286   H   0.600719361330000   0.879373569583137   0.093459026757834   1.0
H287   H   0.487378135336115   0.619757787364797   0.219762025102703   1.0
H288   H   0.710264621693653   0.617459242715562   0.967259670327365   1.0
H289   H   0.204364817931335   0.382734316688364   0.517631646690312   1.0
H290   H   0.427256680302854   0.380357951809643   0.265201630084121   1.0
H291   H   0.229654822599322   0.200089259934522   0.569492228876435   1.0
H292   H   0.449878148371091   0.194815440158735   0.319398770994141   1.0
H293   H   0.413898376420299   0.311684010015114   0.505074480123383   1.0
H294   H   0.642239688936030   0.307530610617505   0.261448834824201   1.0
H295   H   0.389151930491487   0.756814374931466   0.390734237506521   1.0
H296   H   0.615683973211752   0.757637278259473   0.141240693570111   1.0
H297   H   0.356241629891031   0.794649615007579   0.176890519298866   1.0
H298   H   0.576630755109889   0.797639148808521   0.933352155029446   1.0
H299   H   0.338061106728034   0.202655862215913   0.551518367536140   1.0
H300   H   0.558384090171202   0.205286814723316   0.308186963995631   1.0
H301   H   0.470252505871066   0.997148667002882   0.592438150291436   1.0
H302   H   0.701452752840595   0.000882177184288   0.352617757936684   1.0
H303   H   0.212951872402705   0.999199694763242   0.132179928087403   1.0
H304   H   0.444213687052844   0.002782293405353   0.892779016006003   1.0
H305   H   0.356754738290668   0.495677728883273   0.706291411184417   1.0
H306   H   0.583443500598548   0.497765885757502   0.464258449139955   1.0
H307   H   0.475590350417413   0.109604607374017   0.651417157380301   1.0
H308   H   0.703968527055565   0.123023465060427   0.405417919290194   1.0
H309   H   0.210530242268724   0.876936919510264   0.079476389151999   1.0
H310   H   0.438741410475025   0.890436314218142   0.833750927853707   1.0
H311   H   0.322875023749866   0.611569476713818   0.960201681400747   1.0
H312   H   0.547956259464598   0.607782576497037   0.714955181523436   1.0
H313   H   0.366507632007306   0.392240370478874   0.770237249504341   1.0
H314   H   0.591561402401510   0.388491936474338   0.524847184879093   1.0
H315   H   0.466373356386093   0.097647110512824   0.483970763260942   1.0
H316   H   0.686219040677358   0.083501940862320   0.233404960928638   1.0
H317   H   0.331058497494325   0.502324892010840   0.020785579461531   1.0
H318   H   0.557711527147141   0.504293880866406   0.778869399207004   1.0
H319   H   0.335863781989168   0.607114066520801   0.125515977278304   1.0
H320   H   0.557413111991934   0.611187753336736   0.878360531481050   1.0
H321   H   0.357129746858838   0.389154968830461   0.606734230606470   1.0
H322   H   0.578786920841722   0.392823125291734   0.359558809012419   1.0
H323   H   0.484006704646859   0.213883395360057   0.535065066660010   1.0
H324   H   0.710388340469230   0.195644767812219   0.281315270582127   1.0
H325   H   0.203938230582771   0.804267412613584   0.203414599504200   1.0
H326   H   0.430454745827525   0.786267238970822   0.950286629767113   1.0
H327   H   0.317747500582840   0.723704703811130   0.075169452532862   1.0
H328   H   0.540400829191633   0.730353750522568   0.829472424433938   1.0
H329   H   0.374232391357552   0.269843686283124   0.655420529583644   1.0
H330   H   0.596768925173713   0.276236383404289   0.410032291511683   1.0
H331   H   0.448355864065825   0.284018076065713   0.430535812711192   1.0
H332   H   0.669946033837959   0.271288516024477   0.181427967927433   1.0
H333   H   0.227982550979476   0.916346188921942   0.251557045519149   1.0
H334   H   0.448297141951308   0.902507355581385   0.001191554570987   1.0
H335   H   0.244284815188834   0.728481050902467   0.303422901374653   1.0
H336   H   0.466288042179990   0.716051853358074   0.054613475850736   1.0
O337   O   0.398158279412357   0.087327693322422   0.715023980006329   1.0
O338   O   0.626843697584675   0.092007176888394   0.470763235982680   1.0
O339   O   0.287779030096431   0.907926440048726   0.014415944578623   1.0
O340   O   0.516121216557885   0.912656437337482   0.769886819852118   1.0
O341   O   0.399512251164175   0.591079713762625   0.892532453398196   1.0
O342   O   0.624151081198328   0.593210952313441   0.648659045382836   1.0
O343   O   0.290270298523708   0.406613259394547   0.836407514469158   1.0
O344   O   0.514922055746439   0.408960098127217   0.592384794259715   1.0
O345   O   0.351964318896570   0.150151346666753   0.301134976949910   1.0
O346   O   0.579586788124928   0.146975274784317   0.060755767421050   1.0
O347   O   0.390742246506676   0.186563124385906   0.438461477616691   1.0
O348   O   0.610875364669702   0.185685230261292   0.201164242860536   1.0
O349   O   0.446139617819959   0.647064381052694   0.307065484497620   1.0
O350   O   0.674060863882289   0.643693676544757   0.059877743665829   1.0
O351   O   0.240453944787106   0.356134561141914   0.424946925651106   1.0
O352   O   0.468451839802249   0.353073354031395   0.177846585956082   1.0
O353   O   0.303344101791204   0.814270009260497   0.283884321815563   1.0
O354   O   0.523910521953752   0.813416181881927   0.046448751594738   1.0
O355   O   0.411929047942017   0.691005136420898   0.168860491796728   1.0
O356   O   0.631659299683328   0.691129488660202   0.928724578924921   1.0
O357   O   0.317963773823287   0.353262639337729   0.694904327414299   1.0
O358   O   0.541248363457420   0.361559150256127   0.450269250463151   1.0
O359   O   0.334760960420283   0.853030908749474   0.424200596423766   1.0
O360   O   0.562676390497231   0.849664930754123   0.183826646792042   1.0
O361   O   0.373244139761056   0.638577659363669   0.034671334829767   1.0
O362   O   0.596620038368265   0.646530278814168   0.790144611263258   1.0
O363   O   0.402996127046819   0.150664375643942   0.012993989827940   1.0
O364   O   0.636752443682362   0.155289732478714   0.772757455291497   1.0
O365   O   0.427268987094742   0.130338100573908   0.572860758701538   1.0
O366   O   0.654354648379794   0.122806343830796   0.328105847307931   1.0
O367   O   0.273613342044435   0.367864164431552   0.984634918200243   1.0
O368   O   0.499927237144192   0.377287780972175   0.742488144616360   1.0
O369   O   0.414649719386880   0.622677600021987   0.742390994378589   1.0
O370   O   0.640943327136235   0.632100591590778   0.500436256999286   1.0
O371   O   0.300357540816300   0.873834898014415   0.861652113716630   1.0
O372   O   0.534660593379719   0.876948109968971   0.620438075438592   1.0
O373   O   0.379799979299328   0.123032894873795   0.864509444619031   1.0
O374   O   0.613974091551391   0.126065655635529   0.623346160658436   1.0
O375   O   0.293127218460491   0.356956144555959   0.136427726521759   1.0
O376   O   0.524843516918388   0.361982243670227   0.891719954395541   1.0
O377   O   0.389707403076805   0.638263945785361   0.593147547818731   1.0
O378   O   0.621590538073406   0.643250610543838   0.348493935829204   1.0
O379   O   0.277666042993296   0.844574371324697   0.712170625120280   1.0
O380   O   0.511525747080327   0.849176458598826   0.471879310774149   1.0
O381   O   0.267773253675372   0.402742211784300   0.283116770871828   1.0
O382   O   0.499777241213792   0.404077725938492   0.036767495796241   1.0
O383   O   0.414716698776104   0.596063873612948   0.448102398051034   1.0
O384   O   0.646800608666652   0.597122320356661   0.201756921615470   1.0
O385   O   0.304033361729786   0.889470224743462   0.566368689289554   1.0
O386   O   0.534793280203033   0.897741151324801   0.325175677659452   1.0
O387   O   0.379821120769762   0.102206210439050   0.159827254724192   1.0
O388   O   0.610384508373279   0.110584352327891   0.918546649498694   1.0
O389   O   0.260034860696543   0.877370835255995   0.156961398916508   1.0
O390   O   0.487174792868402   0.869470886242084   0.912110123928862   1.0
O391   O   0.282986803128772   0.309058737039145   0.556129951715491   1.0
O392   O   0.502733633636758   0.309109129174104   0.315998012415825   1.0


# Number_of_total_atoms: 392
# Number_of_atom_type: 3
# Name_of_each_atom: C H O
# Number_of_each_atom: 112 224 56
# Created_by: Lihua Chen (lihua.chen@mse.gatech.edu)
# Tool: VASP
# K-points: 1 1 1
# Pseudopotential: PBE-HSE06
# Material_class: MC_Pol
# Geometry_class: GC_PD
# Bandgap_(eV): 5.19
