#======================================================================

# Note: Ordered slab of polyproplyene oxide
# Common_name: Ordered slab-001

#----------------------------------------------------------------------

data_1
_audit_creation_method   'vasp2cif'
_cell_length_a    5.4758000374
_cell_length_b    10.9970998764
_cell_length_c    28.6681995392
_cell_angle_alpha    90.0
_cell_angle_beta    90.0
_cell_angle_gamma    90.0

_symmetry_space_group_name_H-M    'P 1'
loop_
_atom_site_label
_atom_site_type_symbol
_atom_site_fract_x
_atom_site_fract_y
_atom_site_fract_z
_atom_site_occupancy
C1   C   0.531081432029218   0.423944746962441   0.121597378379832   1.0
C2   C   0.527713294474886   0.431808738099654   0.323394985388077   1.0
C3   C   0.969982241060706   0.565280239487201   0.024299616931863   1.0
C4   C   0.972766296145608   0.573493697780727   0.219827399090121   1.0
C5   C   0.027154991373820   0.073533793768362   0.256950150614529   1.0
C6   C   0.030043537754544   0.065197336448328   0.452464286281263   1.0
C7   C   0.765546028615809   0.796138671706956   0.110787131198556   1.0
C8   C   0.764583794180545   0.787431502951748   0.312324603096869   1.0
C9   C   0.260121367989839   0.711672369734906   0.063706247991448   1.0
C10   C   0.264276326692233   0.710129147133479   0.262790895543738   1.0
C11   C   0.735727774701338   0.210205942353909   0.213984682866425   1.0
C12   C   0.739905636364107   0.211583864853189   0.413063045372304   1.0
C13   C   0.472334359517234   0.931889829368878   0.153373307830300   1.0
C14   C   0.468837766043691   0.923959954439049   0.355150906265187   1.0
C15   C   0.235397749147730   0.287447111496299   0.164450275784077   1.0
C16   C   0.234514762878803   0.296101532023819   0.366000333385657   1.0
C17   C   0.011941134946568   0.648296499330321   0.066468669618807   1.0
C18   C   0.013682329296728   0.649391095518091   0.263953913609725   1.0
C19   C   0.986291446806220   0.149439911552221   0.212824299989741   1.0
C20   C   0.988111491649924   0.148242386528288   0.410304346333625   1.0
C21   C   0.486390979294178   0.348118049184322   0.165581981398589   1.0
C22   C   0.488398121024872   0.353588847752270   0.366999933767623   1.0
C23   C   0.511672658195280   0.853642128364456   0.109776065143777   1.0
C24   C   0.513580345848652   0.848090674872765   0.311180394324140   1.0
H25   H   0.976820677036564   0.617849283403899   0.991883943174102   1.0
H26   H   0.019949945421260   0.625881432963681   0.188574957214186   1.0
H27   H   0.515066944625794   0.879925038950873   0.184976187359020   1.0
H28   H   0.490096798479890   0.868032662936287   0.386561517723145   1.0
H29   H   0.979955423077499   0.125920372606288   0.288201395401742   1.0
H30   H   0.023211359202783   0.117748179246682   0.484884344016372   1.0
H31   H   0.509850788379048   0.367978336614499   0.090196103594067   1.0
H32   H   0.484902738987643   0.379839891251315   0.291796572617073   1.0
H33   H   0.281983713156386   0.961601927162619   0.155274252396396   1.0
H34   H   0.283145765633208   0.960461476282646   0.354746158344355   1.0
H35   H   0.904383504420053   0.866521322093192   0.116788455590786   1.0
H36   H   0.905145813810144   0.853318773794641   0.322539362427356   1.0
H37   H   0.218760127850324   0.046090463346630   0.259368244551091   1.0
H38   H   0.209201509754202   0.021761941844531   0.450065417609459   1.0
H39   H   0.493209195139507   0.909648313162215   0.078136091034324   1.0
H40   H   0.502981734357725   0.906685797966823   0.280084652891112   1.0
H41   H   0.716747461293330   0.460480213915758   0.121994832747561   1.0
H42   H   0.718080551873179   0.461492868916160   0.321481995316240   1.0
H43   H   0.588833089297985   0.012716476720008   0.152239159650286   1.0
H44   H   0.596428776151484   0.000425621095722   0.356803185245475   1.0
H45   H   0.109804921747745   0.494220313954678   0.022781621632625   1.0
H46   H   0.085516735951749   0.491325095850456   0.220841279195213   1.0
H47   H   0.790806570574240   0.521863835477951   0.026698811567279   1.0
H48   H   0.781149845884208   0.546069262566249   0.217414645407928   1.0
H49   H   0.005265022148208   0.594634754539300   0.098894555411320   1.0
H50   H   0.001887549749668   0.591084163591688   0.295089481552310   1.0
H51   H   0.403432841018571   0.500384555356931   0.119932974780447   1.0
H52   H   0.411263341829304   0.512652483264041   0.324531679356298   1.0
H53   H   0.496987404986875   0.406750527623785   0.196667756916028   1.0
H54   H   0.506933962062760   0.409609480649919   0.398635220627817   1.0
H55   H   0.774415455615319   0.730692868211733   0.139734892109971   1.0
H56   H   0.763640815235767   0.713442166671676   0.338190549979238   1.0
H57   H   0.251248165225128   0.785217273198832   0.037736998490971   1.0
H58   H   0.261919328131412   0.783785721412862   0.236853557482284   1.0
H59   H   0.738139773846711   0.283886447560405   0.239912151725783   1.0
H60   H   0.748714711869141   0.285117189468941   0.439037584219562   1.0
H61   H   0.236324642858136   0.213452503655347   0.138586456675505   1.0
H62   H   0.225626681528212   0.230639096285174   0.337059055285806   1.0
H63   H   0.914379989324509   0.991373582471759   0.255928811680796   1.0
H64   H   0.890186837415392   0.994152006697121   0.453974041055304   1.0
H65   H   0.401956763777804   0.647394187886952   0.052820507970822   1.0
H66   H   0.404893698461180   0.644292091425932   0.252474798709983   1.0
H67   H   0.595081243587209   0.144395718949788   0.224311862684502   1.0
H68   H   0.598091769271313   0.147284812351579   0.423938038748638   1.0
H69   H   0.094821162414313   0.353329054673878   0.154237132452600   1.0
H70   H   0.095694937035212   0.366488111472201   0.359993682512965   1.0
H71   H   0.998071690725610   0.091129971657054   0.181689381736426   1.0
H72   H   0.994866174180359   0.094613257485179   0.377871215388552   1.0
O73   O   0.809811249792318   0.734576455491158   0.066854365490187   1.0
O74   O   0.816685220125365   0.738852503553012   0.266260002199807   1.0
O75   O   0.319150276161736   0.761581271893327   0.109318692756730   1.0
O76   O   0.316797346827350   0.758862031768913   0.308779620972501   1.0
O77   O   0.683199785870350   0.258905835589907   0.167989905325534   1.0
O78   O   0.680911721451281   0.261513993655100   0.367452804001346   1.0
O79   O   0.183321910070561   0.238879645105435   0.210516974022468   1.0
O80   O   0.190208629452748   0.234559154335486   0.409937080822971   1.0


# Number_of_total_atoms: 80
# Number_of_atom_type: 3
# Name_of_each_atom: C H O
# Number_of_each_atom: 24 48 8
# Created_by: Lihua Chen (lihua.chen@mse.gatech.edu)
# Tool: VASP
# K-points: 5 1 1
# Pseudopotential: PBE-HSE06
# Material_class: MC_Pol
# Geometry_class: GC_PD
# Bandgap_(eV): 5.11
