#======================================================================

# Note: Ordered slab of isotactic polyvinyl alcohol
# Common_name: Ordered slab-100

#----------------------------------------------------------------------

data_1
_audit_creation_method   'vasp2cif'
_cell_length_a    30.0
_cell_length_b    2.572510004
_cell_length_c    4.8613300323
_cell_angle_alpha    90.0
_cell_angle_beta    90.0
_cell_angle_gamma    90.0

_symmetry_space_group_name_H-M    'P 1'
loop_
_atom_site_label
_atom_site_type_symbol
_atom_site_fract_x
_atom_site_fract_y
_atom_site_fract_z
_atom_site_occupancy
C1   C   0.260432438813019   0.341587822907172   0.678591816545811   1.0
C2   C   0.452647279387897   0.834078962630585   0.234012727857184   1.0
C3   C   0.287046511871530   0.840516763187750   0.618126525537882   1.0
C4   C   0.429249682397902   0.332371668285830   0.332617817221319   1.0
C5   C   0.547350795175333   0.334088050821379   0.766008765798922   1.0
C6   C   0.739571855457108   0.841631651304439   0.321418122372442   1.0
C7   C   0.570743396354153   0.832341354350746   0.667362293170584   1.0
C8   C   0.712953339981219   0.340492387164808   0.381850761016970   1.0
H9   H   0.453541834463323   0.834475878099084   0.007927496458251   1.0
H10   H   0.487312933528578   0.831779195131467   0.306507305516490   1.0
H11   H   0.370978540391540   0.658615174424220   0.228219150447465   1.0
H12   H   0.427952873596048   0.334795630116410   0.560222037616363   1.0
H13   H   0.297056907184235   0.842542330766939   0.399573474031172   1.0
H14   H   0.340237974945275   0.164468863442607   0.802228746023395   1.0
H15   H   0.250427667139121   0.341451494476111   0.896465940564980   1.0
H16   H   0.230082286478435   0.338486894004483   0.551646454673680   1.0
H17   H   0.749578673368404   0.841450395221983   0.103500800845396   1.0
H18   H   0.769922122951975   0.838479228140287   0.448379161944786   1.0
H19   H   0.659765027311181   0.664476961092909   0.197790010873199   1.0
H20   H   0.702948520025934   0.342543460695900   0.600442633923166   1.0
H21   H   0.572042383503629   0.834738485779127   0.439791045655582   1.0
H22   H   0.629025177715420   0.158523449635830   0.771788008141264   1.0
H23   H   0.546454652344465   0.334451831444717   0.992053366604644   1.0
H24   H   0.512688233030033   0.331739977800510   0.693498948885072   1.0
O25   O   0.327240087938541   0.812735180563230   0.787951996818350   1.0
O26   O   0.383865145565842   0.305647968619787   0.226630873487224   1.0
O27   O   0.616130414447639   0.805682718436437   0.773352817238781   1.0
O28   O   0.672763146998882   0.312686211617574   0.212040872712599   1.0


# Number_of_total_atoms: 28
# Number_of_atom_type: 3
# Name_of_each_atom: C H O
# Number_of_each_atom: 8 16 4
# Created_by: Lihua Chen (lihua.chen@mse.gatech.edu)
# Tool: VASP
# K-points: 1 12 6
# Pseudopotential: PBE-HSE06
# Material_class: MC_Pol
# Geometry_class: GC_PD
# Bandgap_(eV): 5.56
