#======================================================================

# Note: Ordered slab of polyketone
# Common_name: Ordered slab-100

#----------------------------------------------------------------------

data_1
_audit_creation_method   'vasp2cif'
_cell_length_a    30.0
_cell_length_b    4.5293498039
_cell_length_c    7.6091799736
_cell_angle_alpha    90.0
_cell_angle_beta    90.0
_cell_angle_gamma    90.0

_symmetry_space_group_name_H-M    'P 1'
loop_
_atom_site_label
_atom_site_type_symbol
_atom_site_fract_x
_atom_site_fract_y
_atom_site_fract_z
_atom_site_occupancy
C1   C   0.424367944517840   0.551202933491794   0.249999999947434   1.0
C2   C   0.447459309352872   0.453840332824044   0.749999984334714   1.0
C3   C   0.318074946183337   0.048580461205148   0.749999984334714   1.0
C4   C   0.552540690647128   0.953840332835078   0.249999999947434   1.0
C5   C   0.431396011290701   0.595699808738878   0.581433954835909   1.0
C6   C   0.440166578484415   0.408222941846432   0.418591970237820   1.0
C7   C   0.311089185034746   0.091482482404949   0.418027318251305   1.0
C8   C   0.559833453315584   0.908222994624431   0.581408061092759   1.0
C9   C   0.440166578484415   0.408222941846432   0.081408037673675   1.0
C10   C   0.431396011290701   0.595699808738878   0.918566076389531   1.0
C11   C   0.559833453315584   0.908222994624431   0.918591970132681   1.0
C12   C   0.311089185034746   0.091482482404949   0.081972689660191   1.0
C13   C   0.681925053816663   0.548580471151389   0.249999999947434   1.0
C14   C   0.703550141567440   0.441609292695880   0.749999984334714   1.0
C15   C   0.575632119048826   0.051202923545553   0.749999984334714   1.0
C16   C   0.296449922032558   0.941609292706914   0.249999999947434   1.0
C17   C   0.688910814965261   0.591482436272500   0.581972713079274   1.0
C18   C   0.698563506786790   0.408874571070726   0.418294893816942   1.0
C19   C   0.568603988709299   0.095699854871327   0.418566076494670   1.0
C20   C   0.301436461413218   0.908874623848725   0.581705137513637   1.0
C21   C   0.698563506786790   0.408874571070726   0.081705114094554   1.0
C22   C   0.688910814965261   0.591482436272500   0.918027318146166   1.0
C23   C   0.301436461413218   0.908874623848725   0.918294893711803   1.0
C24   C   0.568603988709299   0.095699854871327   0.081433931416825   1.0
H25   H   0.346637958173524   0.142670677713468   0.091967558354781   1.0
H26   H   0.422860379323154   0.194926899245836   0.427919308359556   1.0
H27   H   0.448585212412702   0.809401278043950   0.571679130647411   1.0
H28   H   0.346637958173524   0.142670677713468   0.408032418147286   1.0
H29   H   0.317676278621399   0.691731558866195   0.573352504157441   1.0
H30   H   0.422860379323154   0.194926899245836   0.072080675896302   1.0
H31   H   0.448585212412702   0.809401278043950   0.928320900709451   1.0
H32   H   0.317676278621399   0.691731558866195   0.926647527199421   1.0
H33   H   0.551414819387297   0.309401278032915   0.071679083572683   1.0
H34   H   0.395950184982993   0.647481898169012   0.594469383614545   1.0
H35   H   0.475590806146101   0.355719107195419   0.405949527770709   1.0
H36   H   0.551414819387297   0.309401278032915   0.428320900683175   1.0
H37   H   0.524409193853899   0.855719080933376   0.594050472281857   1.0
H38   H   0.475590806146101   0.355719107195419   0.094050448731359   1.0
H39   H   0.395950184982993   0.647481898169012   0.905530647742317   1.0
H40   H   0.524409193853899   0.855719080933376   0.905949559075005   1.0
H41   H   0.604049783217008   0.147481898157977   0.094469360064046   1.0
H42   H   0.682323721378602   0.191731545608221   0.426647527173131   1.0
H43   H   0.706214470023802   0.804840994334917   0.577411320032226   1.0
H44   H   0.604049783217008   0.147481898157977   0.405530616438021   1.0
H45   H   0.577139652443513   0.694926912503810   0.572080722971023   1.0
H46   H   0.682323721378602   0.191731545608221   0.073352457082720   1.0
H47   H   0.706214470023802   0.804840994334917   0.922588711324636   1.0
H48   H   0.577139652443513   0.694926912503810   0.927919308385839   1.0
H49   H   0.293785529976198   0.304840994323882   0.077411272957505   1.0
H50   H   0.653362073593144   0.642670677724503   0.591967581905280   1.0
H51   H   0.734254423281222   0.360959179222881   0.406145425917856   1.0
H52   H   0.293785529976198   0.304840994323882   0.422588711298353   1.0
H53   H   0.265745608518777   0.860959152960838   0.593854574134710   1.0
H54   H   0.734254423281222   0.360959179222881   0.093854550584211   1.0
H55   H   0.653362073593144   0.642670677724503   0.908032449451582   1.0
H56   H   0.265745608518777   0.860959152960838   0.906145457222152   1.0
O57   O   0.344852981755054   0.256683592984558   0.749999984334714   1.0
O58   O   0.473509835962020   0.241625697884693   0.749999984334714   1.0
O59   O   0.526490164037980   0.741625645128778   0.249999999947434   1.0
O60   O   0.398765599579264   0.765744117094421   0.249999999947434   1.0
O61   O   0.601234400420736   0.265744064316422   0.749999984334714   1.0
O62   O   0.726886895625888   0.216690781072558   0.749999984334714   1.0
O63   O   0.273113072574112   0.716690728316642   0.249999999947434   1.0
O64   O   0.655146986444947   0.756683645762557   0.249999999947434   1.0


# Number_of_total_atoms: 64
# Number_of_atom_type: 3
# Name_of_each_atom: C H O
# Number_of_each_atom: 24 32 8
# Created_by: Lihua Chen (lihua.chen@mse.gatech.edu)
# Tool: VASP
# K-points: 1 6 4
# Pseudopotential: PBE-HSE06
# Material_class: MC_Pol
# Geometry_class: GC_PD
# Bandgap_(eV): 5.32
