#======================================================================

# Note: Ordered slab of polycaprolactone 
# Common_name: Ordered slab-100

#----------------------------------------------------------------------

data_1
_audit_creation_method   'vasp2cif'
_cell_length_a    28.0
_cell_length_b    4.5381999016
_cell_length_c    17.2157993317
_cell_angle_alpha    90.0190963744
_cell_angle_beta    90.0
_cell_angle_gamma    90.0

_symmetry_space_group_name_H-M    'P 1'
loop_
_atom_site_label
_atom_site_type_symbol
_atom_site_fract_x
_atom_site_fract_y
_atom_site_fract_z
_atom_site_occupancy
C1   C   0.294694334948687   0.042231981914817   0.029153065377635   1.0
C2   C   0.415233883853752   0.646624726666936   0.263932684255018   1.0
C3   C   0.681538306589786   0.665500594717372   0.258024234197833   1.0
C4   C   0.398480115664846   0.547326744932342   0.399003800163165   1.0
C5   C   0.669484851780133   0.565707360794775   0.394475709162315   1.0
C6   C   0.395624552915656   0.521674242887713   0.546524391996677   1.0
C7   C   0.674023286201091   0.542599139311420   0.541805150045931   1.0
C8   C   0.395134904103550   0.494269972225645   0.695695024619909   1.0
C9   C   0.675173224834793   0.515613283236775   0.690507414797288   1.0
C10   C   0.421784870749754   0.610822417607565   0.970491619069115   1.0
C11   C   0.691045873560299   0.602151948753033   0.966195619761010   1.0
C12   C   0.435752517300415   0.455517628615610   0.046709330043861   1.0
C13   C   0.717658523038068   0.524350332995944   0.041629003217103   1.0
C14   C   0.438033245469164   0.487776024276549   0.195583743731774   1.0
C15   C   0.711753908289936   0.547619767881450   0.191270820970615   1.0
C16   C   0.411922634997524   0.371975028907052   0.470725340311326   1.0
C17   C   0.684859021017473   0.385034610072260   0.464493047659843   1.0
C18   C   0.408798085576151   0.340887346295901   0.618873760574282   1.0
C19   C   0.684864289789509   0.352165358544447   0.613550794681011   1.0
C20   C   0.417546526980359   0.332548049967194   0.763921856736957   1.0
C21   C   0.688336197749123   0.325979646544816   0.760285138134250   1.0
C22   C   0.434489851557174   0.430517043560272   0.899168934988687   1.0
C23   C   0.692017920597685   0.656708792311527   0.112726474415474   1.0
C24   C   0.424263941140936   0.641816501482694   0.118862634928831   1.0
C25   C   0.706471940997623   0.424169801375982   0.895975371991696   1.0
C26   C   0.283830084816067   0.851986184890166   0.957357689815133   1.0
C27   C   0.573023698920693   0.021137270512320   0.024764212718622   1.0
C28   C   0.299112651084364   0.065137007895771   0.176475269531963   1.0
C29   C   0.570094253306365   0.046996002804342   0.172292409419761   1.0
C30   C   0.287062849707823   0.164026127707842   0.312978705894721   1.0
C31   C   0.553294376153957   0.146684820529409   0.307356128493218   1.0
C32   C   0.276510234704304   0.155718388749591   0.458258688384625   1.0
C33   C   0.559794044003411   0.840653402089615   0.952358721568515   1.0
C34   C   0.277344181599638   0.103197210277024   0.604886852246587   1.0
C35   C   0.546792701287593   0.111284682884403   0.600825394313368   1.0
C36   C   0.293620627176978   0.015292471402553   0.880448289234018   1.0
C37   C   0.544313515109842   0.142047560614948   0.452441114396755   1.0
C38   C   0.283789968330993   0.884568053295624   0.106385249954165   1.0
C39   C   0.573479709067989   0.994152780970282   0.875591178706671   1.0
C40   C   0.280440746026159   0.825723217123034   0.810640859523183   1.0
C41   C   0.534083071086584   0.931001147848932   0.672121943474359   1.0
C42   C   0.262103762849314   0.924786147372679   0.675098567057120   1.0
C43   C   0.551036575034672   0.832658556779741   0.807329996934101   1.0
C44   C   0.251151501436503   0.021439054648894   0.529338156820032   1.0
C45   C   0.530504603874924   0.987957366825164   0.375710844702461   1.0
C46   C   0.257080051769762   0.044232137277852   0.379737046713956   1.0
C47   C   0.556678504150206   0.871580256844233   0.100533205367718   1.0
C48   C   0.532859284298603   0.955782475663909   0.524585835802178   1.0
H49   H   0.376493143393226   0.653960434274396   0.257645787804371   1.0
H50   H   0.654223053982449   0.595268081189211   0.109825011878343   1.0
H51   H   0.385865678994243   0.689660075255716   0.119531383248862   1.0
H52   H   0.695252230599941   0.835800582250172   0.951917615028471   1.0
H53   H   0.440556776901147   0.822190047129290   0.964790491741901   1.0
H54   H   0.696356331591659   0.718804135078450   0.692387394204232   1.0
H55   H   0.408742302982432   0.720232769867685   0.695091188302086   1.0
H56   H   0.695099337465457   0.746082792249602   0.544796550014240   1.0
H57   H   0.412714970544542   0.738446434672845   0.550649992766253   1.0
H58   H   0.543712419060967   0.761146370573584   0.376646748379692   1.0
H59   H   0.428977008244843   0.870369468885137   0.271838093543216   1.0
H60   H   0.693450072407039   0.898307502048489   0.110256803067259   1.0
H61   H   0.442544611574611   0.855126955872336   0.115097821603030   1.0
H62   H   0.576995553445293   0.623892136014071   0.955021356273633   1.0
H63   H   0.305383718449498   0.650107235157378   0.959468848209077   1.0
H64   H   0.565240568623246   0.609957150311644   0.799602946307758   1.0
H65   H   0.302648462924075   0.627813194159245   0.806767482562279   1.0
H66   H   0.552276658192120   0.746508944534042   0.520510779189721   1.0
H67   H   0.250202857225368   0.780943760678959   0.523572841297714   1.0
H68   H   0.643709972525890   0.619304645586197   0.248909351379268   1.0
H69   H   0.686474494892764   0.901598013760136   0.267886121371504   1.0
H70   H   0.356956256095643   0.560585882377119   0.544298682452819   1.0
H71   H   0.391551046622652   0.124275353702295   0.616114305512731   1.0
H72   H   0.356148998354477   0.503128640288523   0.702132690656846   1.0
H73   H   0.258912190580482   0.802884437665362   0.378655657852619   1.0
H74   H   0.722421318824225   0.280941671613817   0.611992680047116   1.0
H75   H   0.447421859800556   0.300938692759757   0.618689231696209   1.0
H76   H   0.722843503942521   0.330399111609083   0.459298171736940   1.0
H77   H   0.450597035628398   0.336807795558009   0.470788576484836   1.0
H78   H   0.749231592100294   0.612850875811006   0.198730154366018   1.0
H79   H   0.477022826106008   0.480923942316480   0.202200789670130   1.0
H80   H   0.754707624091687   0.601845255597752   0.038254401293521   1.0
H81   H   0.473937381145639   0.400524257074750   0.045071144894081   1.0
H82   H   0.666108959630549   0.128152462147412   0.764130691613417   1.0
H83   H   0.403323858645095   0.109891489777766   0.771565102267424   1.0
H84   H   0.663236576892139   0.150580397733641   0.611437991892984   1.0
H85   H   0.665186389096576   0.176030034672152   0.460990654635019   1.0
H86   H   0.395445117690528   0.153793245494136   0.464416419985206   1.0
H87   H   0.710469314243191   0.306105116442261   0.192442140063285   1.0
H88   H   0.424801146826802   0.261010604987277   0.194613038805088   1.0
H89   H   0.719367374026561   0.284060792739908   0.047562705369259   1.0
H90   H   0.416376441989790   0.246108210607019   0.050762574351857   1.0
H91   H   0.652565653150205   0.563772566415722   0.973450031920166   1.0
H92   H   0.383530992139185   0.661864305996396   0.969270781199732   1.0
H93   H   0.637372878409444   0.579842613383853   0.693980536627727   1.0
H94   H   0.636329281300881   0.609402786573327   0.542435512130488   1.0
H95   H   0.573141150541289   0.653371806286103   0.106840435289222   1.0
H96   H   0.585036827811003   0.162618461686669   0.602056431161017   1.0
H97   H   0.521162165826091   0.801032068905975   0.952529059159460   1.0
H98   H   0.332401165436750   0.108751553417932   0.028582151054898   1.0
H99   H   0.611703950738651   0.059533571089773   0.026977988575787   1.0
H100   H   0.324961607331936   0.119712122989071   0.321969264612960   1.0
H101   H   0.592033928833082   0.154024188525597   0.313636471341809   1.0
H102   H   0.314456054232870   0.098037341907293   0.461252012144328   1.0
H103   H   0.582710763580884   0.189914109777959   0.451736558315261   1.0
H104   H   0.303430556559377   0.675458706777611   0.109879587685612   1.0
H105   H   0.456317338333101   0.321881061154002   0.757893198914118   1.0
H106   H   0.331441254306341   0.079079910321013   0.877055311541142   1.0
H107   H   0.612464226831179   0.002867795441645   0.869136113960302   1.0
H108   H   0.273662239101519   0.245888154385646   0.026211938349569   1.0
H109   H   0.556005079604375   0.238136567291825   0.020691383621873   1.0
H110   H   0.281804394830502   0.399897723658299   0.303242834261653   1.0
H111   H   0.539551281669645   0.370419165217065   0.299476792721791   1.0
H112   H   0.315944545073407   0.068966447158175   0.597993967975810   1.0
H113   H   0.526034148519912   0.355361143659842   0.456258021100396   1.0
H114   H   0.274444091215756   0.397105550341721   0.460630059014328   1.0
H115   H   0.246247571910338   0.781271151075160   0.958861228314092   1.0
H116   H   0.512270013938867   0.822101437207600   0.813401026250972   1.0
H117   H   0.242903472786168   0.760237229602112   0.811892078712127   1.0
H118   H   0.494685901494421   0.900511029256606   0.526224998963308   1.0
H119   H   0.213860258039958   0.094527306568757   0.532445912042022   1.0
H120   H   0.491510966228319   0.981262133095711   0.369140075362225   1.0
H121   H   0.725868204228682   0.260345148126419   0.759020738180496   1.0
H122   H   0.518001208862202   0.836518504240971   0.100407590710311   1.0
H123   H   0.245796262576505   0.830044825989681   0.111481453908866   1.0
H124   H   0.559893409256055   0.220176230737735   0.876262213265619   1.0
H125   H   0.272496183384682   0.218715200827248   0.878561774878392   1.0
H126   H   0.527976947759150   0.322509224439059   0.606539708877371   1.0
H127   H   0.272408557350900   0.336550971383410   0.618943815351180   1.0
H128   H   0.219466099993170   0.106250432652821   0.372190950851980   1.0
O129   O   0.289039953989693   0.999693315267102   0.739246671825271   1.0
O130   O   0.562027428332762   0.998915636827356   0.734645110979102   1.0
O131   O   0.272310261557536   0.006888296402046   0.240521105953533   1.0
O132   O   0.542063698199932   0.980451588827748   0.234792605658782   1.0
O133   O   0.406559531641051   0.498658479338950   0.836659192867614   1.0
O134   O   0.679750876990184   0.500099637136728   0.831685156193011   1.0
O135   O   0.426464974099233   0.480451684370969   0.336462828220142   1.0
O136   O   0.737206198741276   0.232322494868598   0.895238740343672   1.0
O137   O   0.466594741228455   0.245560887772534   0.896939385598053   1.0
O138   O   0.365882669883874   0.728803968768325   0.396542971247541   1.0
O139   O   0.635903682790143   0.740950479661798   0.394857133189454   1.0
O140   O   0.332559924396499   0.241346156237789   0.176121846026156   1.0
O141   O   0.602719631815127   0.228321589669932   0.174803902658333   1.0
O142   O   0.501948103015152   0.746249408383655   0.674321353750493   1.0
O143   O   0.696397143278219   0.508693386976418   0.330458012794764   1.0
O144   O   0.231255456677722   0.733632968391170   0.675946614880552   1.0


# Number_of_total_atoms: 144
# Number_of_atom_type: 3
# Name_of_each_atom: C H O
# Number_of_each_atom: 48 80 16
# Created_by: Lihua Chen (lihua.chen@mse.gatech.edu)
# Tool: VASP
# K-points: 1 6 1
# Pseudopotential: PBE-HSE06
# Material_class: MC_Pol
# Geometry_class: GC_PD
# Bandgap_(eV): 6.48
