#======================================================================

# Note: Ordered slab of isotactic polymethyl methacrylate
# Common_name: Ordered slab-100

#----------------------------------------------------------------------

data_1
_audit_creation_method   'vasp2cif'
_cell_length_a    35.0
_cell_length_b    11.3076000214
_cell_length_c    10.3173999787
_cell_angle_alpha    90.819999695
_cell_angle_beta    90.0
_cell_angle_gamma    89.9800033571

_symmetry_space_group_name_H-M    'P 1'
loop_
_atom_site_label
_atom_site_type_symbol
_atom_site_fract_x
_atom_site_fract_y
_atom_site_fract_z
_atom_site_occupancy
C1   C   0.441480052728259   0.276202263923068   0.415869773854254   1.0
C2   C   0.433503731001871   0.541081372473272   0.241349013769280   1.0
C3   C   0.508534667682312   0.709763610587871   0.512048155694849   1.0
C4   C   0.790478475145846   0.780965651827380   0.521577002530904   1.0
C5   C   0.209479470925658   0.280514853051983   0.020703872689985   1.0
C6   C   0.491429773115804   0.210058858450587   0.011267154640407   1.0
C7   C   0.525544971944029   0.855885172683273   0.969019496152193   1.0
C8   C   0.770636194611498   0.640405717820940   0.955027912628466   1.0
C9   C   0.229279522909764   0.139872116380658   0.454254775597946   1.0
C10   C   0.474316970512746   0.356104693275093   0.467999247213214   1.0
C11   C   0.552348725473294   0.503828176031824   0.698361926854794   1.0
C12   C   0.753912459553298   0.014348917181152   0.726247982677286   1.0
C13   C   0.245767872893417   0.513835689194629   0.225386724114046   1.0
C14   C   0.447859388371434   0.003669862649616   0.197725314198948   1.0
C15   C   0.715215400635294   0.994856694634606   0.038119751068002   1.0
C16   C   0.581333570307024   0.510079892813749   0.017169148189808   1.0
C17   C   0.418805158119660   0.009839659032650   0.516684977496112   1.0
C18   C   0.284481284038584   0.494378349124148   0.537281117127215   1.0
C19   C   0.713049037058042   0.769388369669684   0.021525976726387   1.0
C20   C   0.584883068978058   0.733004804518814   0.030733506028149   1.0
C21   C   0.415070628542139   0.232813193339602   0.529650099713386   1.0
C22   C   0.286780748025635   0.269006872965498   0.520938059113014   1.0
C23   C   0.271210088277051   0.951502673443315   0.242385715317219   1.0
C24   C   0.728912951246940   0.451724744469566   0.743150499167612   1.0
C25   C   0.566221132498725   0.041012074745119   0.742157471265514   1.0
C26   C   0.465473940284490   0.438089823659837   0.820445066664377   1.0
C27   C   0.535150706974299   0.620055697215470   0.162223465097917   1.0
C28   C   0.464950946295289   0.120354021809703   0.661180615030261   1.0
C29   C   0.235866961979745   0.377260281813172   0.661178631045644   1.0
C30   C   0.671181060573730   0.100425114682480   0.904181986977250   1.0
C31   C   0.625311008012332   0.405388407037272   0.878013799291224   1.0
C32   C   0.375002168401949   0.904031573702134   0.378216165489057   1.0
C33   C   0.328419909309801   0.599882940168627   0.403063190173064   1.0
C34   C   0.715666329124119   0.031634735209636   0.379127157084667   1.0
C35   C   0.583915889155996   0.452321620615947   0.361497669053591   1.0
C36   C   0.416358881397621   0.953002667129446   0.861303879036953   1.0
C37   C   0.722262804047240   0.879132002476865   0.111588330204242   1.0
C38   C   0.284148403046949   0.531546935575882   0.878249654521866   1.0
C39   C   0.700388870307648   0.376196974056498   0.109727671567917   1.0
C40   C   0.299989320430235   0.876860882625977   0.608794133553772   1.0
C41   C   0.401157004597394   0.598166805839213   0.624314686273102   1.0
C42   C   0.642895378545489   0.096807701071185   0.563924588672251   1.0
C43   C   0.658576133637176   0.383058821657087   0.536194532328487   1.0
C44   C   0.341745729112389   0.883419139466383   0.036029132965808   1.0
C45   C   0.356899815337741   0.596842647846046   0.062741389360504   1.0
C46   C   0.534407506861569   0.937994528060734   0.321371919597929   1.0
C47   C   0.768851362649848   0.536547379317028   0.304410705261347   1.0
C48   C   0.231339410967635   0.035909630411673   0.803847683036992   1.0
C49   C   0.598555963488486   0.098550891325615   0.125640029986116   1.0
C50   C   0.576186095954689   0.618076942720073   0.108072892940754   1.0
C51   C   0.763928158247204   0.877777878832781   0.161725431258176   1.0
C52   C   0.277521129424876   0.378742503431674   0.610956215059012   1.0
C53   C   0.241675679201919   0.121060429886988   0.126302145543036   1.0
C54   C   0.459698160344523   0.356561557489840   0.140596379645459   1.0
C55   C   0.613758301564843   0.895986732885774   0.619226409030567   1.0
C56   C   0.685557537843287   0.588265278238296   0.604728055839693   1.0
C57   C   0.314523873057695   0.088345762958610   0.104235346872706   1.0
C58   C   0.386082384512669   0.396036905987650   0.118272752242262   1.0
C59   C   0.576603613041890   0.911092059555671   0.703712375214600   1.0
C60   C   0.721695536051257   0.579178958136730   0.695338684640568   1.0
C61   C   0.423888839052680   0.118099030260801   0.607262220440326   1.0
C62   C   0.423222972406784   0.411143275149883   0.202777321876645   1.0
C63   C   0.540494457382920   0.674579580128587   0.836984670377717   1.0
C64   C   0.760239987419645   0.830912102729769   0.839702899100075   1.0
C65   C   0.239568140814349   0.330450218651137   0.339029888327339   1.0
C66   C   0.459542092054306   0.174705377552975   0.336006464993510   1.0
C67   C   0.587863830550489   0.841822937615831   0.829543685987851   1.0
C68   C   0.710248933171584   0.665269503110899   0.811173848975479   1.0
C69   C   0.289689058846882   0.165076473120720   0.310566302487253   1.0
C70   C   0.412013915279395   0.341634233528197   0.328475315886315   1.0
C71   C   0.558454251359862   0.776202867680134   0.916889416112610   1.0
C72   C   0.739694843279821   0.726705553785671   0.905628777854005   1.0
C73   C   0.260178348866816   0.226308267270724   0.404965262941190   1.0
C74   C   0.758362042997533   0.621387766776714   0.627115313723493   1.0
C75   C   0.540148339533104   0.856259346608248   0.641669416544907   1.0
C76   C   0.278351385161834   0.079003424986460   0.194638832349646   1.0
C77   C   0.323812334727606   0.999475729874213   0.989281488035779   1.0
C78   C   0.374689125588645   0.482427327135149   0.007179527966464   1.0
C79   C   0.639381608388270   0.426232665086573   0.211310297968140   1.0
C80   C   0.360869086864845   0.926328601175989   0.711388685467348   1.0
C81   C   0.342661968960726   0.560929008181802   0.742976507014404   1.0
C82   C   0.692268724846258   0.864764590829907   0.225390565383087   1.0
C83   C   0.607114363527991   0.623589159745464   0.219062729336279   1.0
C84   C   0.393003590728824   0.123785249312640   0.718429579836695   1.0
C85   C   0.307542759590596   0.364505827564798   0.724684757245640   1.0
C86   C   0.680351927872032   0.969537283054670   0.318554819666844   1.0
C87   C   0.619375992605669   0.513848104312402   0.302404129458679   1.0
C88   C   0.380843747245599   0.014205745562471   0.802141501996331   1.0
C89   C   0.657073253054392   0.061210923915816   0.244262806389734   1.0
C90   C   0.589151222282176   0.014648047495001   0.431985599737672   1.0
C91   C   0.713625214359794   0.467172730048404   0.417319792452361   1.0
C92   C   0.286651661992693   0.966970161186815   0.916742638367168   1.0
C93   C   0.410682243858595   0.514668799847378   0.930955333060254   1.0
C94   C   0.654708069507933   0.909386435477415   0.424551423352184   1.0
C95   C   0.646849684307440   0.571205483576620   0.406393539970480   1.0
C96   C   0.353325834150205   0.071536354048057   0.906051312130430   1.0
C97   C   0.345160704146686   0.409337505168345   0.923569731279599   1.0
C98   C   0.625151611555644   0.982419123719716   0.508199665232880   1.0
C99   C   0.676401958382762   0.499328486259387   0.489704572595400   1.0
C100   C   0.319463291978131   0.469393581870321   0.817658055388691   1.0
H101   H   0.221558422149521   0.119558242186258   0.765137748191101   1.0
H102   H   0.474024256394216   0.353976506819414   0.777555908216094   1.0
H103   H   0.536204354737094   0.006253100347564   0.248865008211112   1.0
H104   H   0.703225738254744   0.418360710682677   0.790286118750892   1.0
H105   H   0.235187319699570   0.970655953625496   0.726338220490540   1.0
H106   H   0.463646010562492   0.506417897833700   0.748004631098077   1.0
H107   H   0.590644999379329   0.084166469712720   0.788682481542288   1.0
H108   H   0.778561155248170   0.620284036846485   0.265782147670805   1.0
H109   H   0.765073022873935   0.471322072196145   0.226837367071774   1.0
H110   H   0.525881117742806   0.853829090548913   0.278589147152026   1.0
H111   H   0.348233639434206   0.654607886433723   0.984932362896011   1.0
H112   H   0.211581757286616   0.002480119789610   0.876289325483086   1.0
H113   H   0.788627839706066   0.503193716758723   0.376857378357634   1.0
H114   H   0.514569418662035   0.966059090629081   0.397002970339251   1.0
H115   H   0.348297431230478   0.826224596833427   0.952997319924457   1.0
H116   H   0.652201693625592   0.325867328956001   0.453003658526740   1.0
H117   H   0.651575810679546   0.154623370597307   0.486209806533118   1.0
H118   H   0.377036008795549   0.646352382217799   0.123106271695001   1.0
H119   H   0.322653765414401   0.834556115093136   0.099184448929741   1.0
H120   H   0.677667091684903   0.334357035094875   0.599546106009079   1.0
H121   H   0.485303499612328   0.466124593853820   0.896083109287282   1.0
H122   H   0.296904297628124   0.918278492665358   0.289654785751900   1.0
H123   H   0.243068165802029   0.064714681810621   0.500579972116007   1.0
H124   H   0.542557657862474   0.042251717487247   0.811015134964578   1.0
H125   H   0.622722267153954   0.146273087260901   0.624234266315888   1.0
H126   H   0.756877611398536   0.565232446024602   0.001368481223928   1.0
H127   H   0.537502401195624   0.931159835553601   0.022814431002040   1.0
H128   H   0.506694178318000   0.278262636394210   0.958948962199493   1.0
H129   H   0.198180728080935   0.217933694033867   0.949428697271777   1.0
H130   H   0.801844027562495   0.718368589797187   0.450414917600320   1.0
H131   H   0.493197954116717   0.777828256302705   0.459697912407698   1.0
H132   H   0.482958146833617   0.137047272962079   0.947685352458130   1.0
H133   H   0.218043724827972   0.362494129784665   0.975115183775976   1.0
H134   H   0.781862748939979   0.862848558849130   0.475852435577068   1.0
H135   H   0.409019249306873   0.584084964664427   0.287730878095544   1.0
H136   H   0.517071019848956   0.636772586190823   0.448506743794219   1.0
H137   H   0.188455753702350   0.296593885038852   0.096944476003110   1.0
H138   H   0.811468816082396   0.797244265568558   0.597862404554157   1.0
H139   H   0.490759420385786   0.680237150580012   0.592185882069884   1.0
H140   H   0.442070356716450   0.593081154837300   0.157825526497625   1.0
H141   H   0.263789939370355   0.891991954943386   0.162085954873461   1.0
H142   H   0.736418026780072   0.392263548383752   0.662883128447241   1.0
H143   H   0.557650767694213   0.092952833015488   0.658583627545759   1.0
H144   H   0.457136946434211   0.542444913911496   0.310324778077344   1.0
H145   H   0.247711654458357   0.948842061565863   0.311549251715419   1.0
H146   H   0.752384937433362   0.449192987819018   0.812425843051109   1.0
H147   H   0.509246611030612   0.180613871817052   0.091353052808977   1.0
H148   H   0.331785691344415   0.575290959206384   0.120788542179596   1.0
H149   H   0.432526571043013   0.017877582850083   0.918753526692186   1.0
H150   H   0.631914995199445   0.400836872382975   0.587923343736932   1.0
H151   H   0.619234527013113   0.431913338783680   0.779311915947851   1.0
H152   H   0.692249521698116   0.112502376637487   0.827973281038297   1.0
H153   H   0.356915519099139   0.584613332955222   0.364584412633420   1.0
H154   H   0.344664528741433   0.885937712197297   0.386797515875891   1.0
H155   H   0.655512539172321   0.385966282556780   0.888562847858751   1.0
H156   H   0.643092324001479   0.083736555724407   0.863060525724620   1.0
H157   H   0.327893613042932   0.677688736388625   0.466071754301531   1.0
H158   H   0.391903285897556   0.827703216212768   0.406759641225428   1.0
H159   H   0.607935342245142   0.329428880388882   0.904373016684502   1.0
H160   H   0.670675098353598   0.177561712927052   0.968189704223427   1.0
H161   H   0.215394134918242   0.378084829744608   0.581493942282492   1.0
H162   H   0.486125146459528   0.119159241119192   0.583448643760335   1.0
H163   H   0.513940097520020   0.618879385726601   0.084614501717411   1.0
H164   H   0.784384207742853   0.878647184954211   0.081992497859176   1.0
H165   H   0.229648398664878   0.453895519128210   0.722560855543165   1.0
H166   H   0.470947049576885   0.044615761730668   0.720805675523884   1.0
H167   H   0.529231630541993   0.544192470865326   0.221732301955782   1.0
H168   H   0.770116797108223   0.954450100843758   0.223062168845196   1.0
H169   H   0.231327705008653   0.297463004394757   0.717815592322729   1.0
H170   H   0.468813655635287   0.200714493348123   0.719508664308321   1.0
H171   H   0.462307473319740   0.431214642201702   0.521975041236551   1.0
H172   H   0.381804856256807   0.929238995400780   0.279637281974502   1.0
H173   H   0.307865316724673   0.609712050318102   0.324856855903370   1.0
H174   H   0.732874823169610   0.965978804822953   0.429706496163263   1.0
H175   H   0.567696713653454   0.516992872652295   0.419114658130987   1.0
H176   H   0.667988983948355   0.075217357860502   0.622085434213162   1.0
H177   H   0.384781247979809   0.656186808863538   0.562834897480535   1.0
H178   H   0.318413871546184   0.816961730433228   0.555201672696967   1.0
H179   H   0.682028960322526   0.316252558708300   0.055997040379246   1.0
H180   H   0.614818177585967   0.156465813686289   0.063754327541773   1.0
H181   H   0.420394540180524   0.542045095974473   0.567936634651218   1.0
H182   H   0.283741566455092   0.933299750724480   0.544204900433826   1.0
H183   H   0.716692991190051   0.432519782063210   0.045210411956887   1.0
H184   H   0.579209607901447   0.042477251974653   0.069689897605173   1.0
H185   H   0.416597685894637   0.651324085860672   0.696054060859602   1.0
H186   H   0.368318538345690   0.901573907443733   0.088103043224237   1.0
H187   H   0.281410089991461   0.826370087751847   0.672091620971976   1.0
H188   H   0.583246226940446   0.151787028577893   0.197662871362411   1.0
H189   H   0.266723362987413   0.573350089723711   0.804275377910166   1.0
H190   H   0.434855918085916   0.916721002924625   0.785513558261407   1.0
H191   H   0.565438555300702   0.416091859780892   0.285640348911265   1.0
H192   H   0.733026938775318   0.073722432431502   0.305200109353727   1.0
H193   H   0.292091464306459   0.601561927251041   0.946476912496337   1.0
H194   H   0.408701999153429   0.879010774013949   0.922811300485016   1.0
H195   H   0.591640330530730   0.378259932387756   0.422833105829511   1.0
H196   H   0.707718498196861   0.101399077341640   0.447675742166254   1.0
H197   H   0.267004954801301   0.465989857777977   0.929173823384495   1.0
H198   H   0.718919854790670   0.325788431301398   0.173300765172065   1.0
H199   H   0.506970373869663   0.806855305377567   0.034126798284021   1.0
H200   H   0.306921379984061   0.236898896857845   0.271169930524991   1.0
H201   H   0.210644122854966   0.183055464380210   0.525148067407159   1.0
H202   H   0.336878850532102   0.140879516152601   0.859107713195044   1.0
H203   H   0.361311652749059   0.337815707921749   0.877198937747053   1.0
H204   H   0.638137397328208   0.898720940020524   0.686231162080588   1.0
H205   H   0.660414265731241   0.585014640865673   0.668459637053360   1.0
H206   H   0.339640968764499   0.085209955578499   0.168109038276491   1.0
H207   H   0.361698174127866   0.398799887544953   0.185263639471401   1.0
H208   H   0.612652736482616   0.805856325371245   0.579336730548519   1.0
H209   H   0.686276257788798   0.677377214984652   0.564997656613109   1.0
H210   H   0.313747948732015   0.177464314809384   0.064535060403159   1.0
H211   H   0.387208116835652   0.305897835660964   0.078411160547162   1.0
H212   H   0.603365849977095   0.905053053687816   0.891832208825448   1.0
H213   H   0.690940373328857   0.613045901498658   0.871830356414627   1.0
H214   H   0.663249996286801   0.640657906703872   0.359514622762013   1.0
H215   H   0.309024611200989   0.112915998962485   0.371237753117001   1.0
H216   H   0.608519421318533   0.773947192056212   0.800771942559152   1.0
H217   H   0.692972109471576   0.736974192325121   0.771658422385954   1.0
H218   H   0.531266656238294   0.700312276804880   0.220734580472829   1.0
H219   H   0.789236386172405   0.683673164947734   0.025934461348392   1.0
H220   H   0.586052683339446   0.806434878046993   0.101377733181422   1.0
H221   H   0.710456195789227   0.692479550255058   0.084822861990133   1.0
H222   H   0.289389027027198   0.192108997303748   0.584249978659614   1.0
H223   H   0.413773797529537   0.306324840319355   0.600170260423496   1.0
H224   H   0.613839716686925   0.722581671550337   0.992600534492304   1.0
H225   H   0.684531808628343   0.785390955172275   0.982335502459122   1.0
H226   H   0.315300823568443   0.285047616344364   0.481819716805553   1.0
H227   H   0.386140660146381   0.222015593661922   0.491412415381660   1.0
H228   H   0.396417651163233   0.404660604790109   0.390780070188320   1.0
H229   H   0.638586238634097   0.837813927887012   0.378216569848654   1.0
H230   H   0.391445332688512   0.273594851064445   0.299553518975756   1.0
H231   H   0.372385482742196   0.116519283296050   0.975676964943908   1.0
H232   H   0.325222630903255   0.368158869202624   0.991760186745957   1.0
H233   H   0.492975553494695   0.307140784867158   0.532927338825672   1.0
H234   H   0.507738306132097   0.888239048628350   0.890492840807347   1.0
H235   H   0.788772856063176   0.607684094009635   0.876336997837797   1.0
H236   H   0.211173381593838   0.107140061758095   0.375508629457450   1.0
H237   H   0.492058602577167   0.388695209564901   0.389436172897824   1.0
H238   H   0.546462391406074   0.430602403601107   0.763118562443921   1.0
H239   H   0.763907436775163   0.074133871932887   0.802919675849537   1.0
H240   H   0.235909511590087   0.573880274196661   0.302039248875310   1.0
H241   H   0.453857138544990   0.930480178065018   0.262431437822158   1.0
H242   H   0.575064954264661   0.481083353380555   0.630771213436390   1.0
H243   H   0.731638231839213   0.055196423298135   0.668447679152493   1.0
H244   H   0.267959219725299   0.554420222051924   0.167039468620146   1.0
H245   H   0.425159049785208   0.980720188507547   0.130181002504528   1.0
H246   H   0.768521557354148   0.798011885821154   0.218381524174767   1.0
H247   H   0.777715468498840   0.986453525440020   0.665403772055768   1.0
H248   H   0.627742432491111   0.616090416039704   0.475980335610096   1.0
H249   H   0.526671076173344   0.528681054897788   0.646436413165020   1.0
H250   H   0.674681316955102   0.868279057946118   0.492708406534909   1.0
H251   H   0.366598459776469   0.157486991619329   0.675866638372014   1.0
H252   H   0.633481614454453   0.657478497805663   0.176465233065294   1.0
H253   H   0.665785902651457   0.831384739256691   0.182245346860924   1.0
H254   H   0.334022995817158   0.331068539805507   0.681517905712660   1.0
H255   H   0.403263099093436   0.191942047860337   0.786952854869611   1.0
H256   H   0.596849309227245   0.691552712820204   0.287836344589174   1.0
H257   H   0.703687330227254   0.794197422089049   0.286419139269114   1.0
H258   H   0.473488905934829   0.028810214024766   0.145737066931844   1.0
H259   H   0.221864604040846   0.485876940255231   0.165073837010894   1.0
H260   H   0.296157341223641   0.294016028569274   0.785855199093817   1.0
O261   O   0.755186827442927   0.733939795470810   0.579792755502474   1.0
O262   O   0.427715034815272   0.416777866454474   0.877447674792641   1.0
O263   O   0.508274749563732   0.894971453082547   0.665276915160938   1.0
O264   O   0.787839468591770   0.563596120220346   0.618360639756020   1.0
O265   O   0.212232836053900   0.063164564816795   0.117531713006329   1.0
O266   O   0.491529890892792   0.395740025070737   0.163734583038391   1.0
O267   O   0.545045111001450   0.757879623531252   0.564099311525943   1.0
O268   O   0.244791905201190   0.233604150433699   0.078944684843108   1.0
O269   O   0.493891811237752   0.160248989814754   0.323683928886950   1.0
O270   O   0.506160960800358   0.659678348427434   0.824955792691654   1.0
O271   O   0.794945368753346   0.843840249485091   0.837022637418386   1.0
O272   O   0.204855462450887   0.343260652072026   0.336422403720498   1.0
O273   O   0.268396425677068   0.063303726665552   0.865570079171633   1.0
O274   O   0.567220250279100   0.604364327590318   0.775301748517265   1.0
O275   O   0.735510098995441   0.910706876383109   0.785501112172781   1.0
O276   O   0.264238605307995   0.410278457318483   0.284676416521407   1.0
O277   O   0.432878625225008   0.104020197855590   0.274758415911876   1.0
O278   O   0.454882031347715   0.257872188021835   0.063436369474268   1.0
O279   O   0.731761237883866   0.563650243134447   0.366080494298451   1.0
O280   O   0.323382872482568   0.956553425130245   0.690188497222081   1.0
O281   O   0.424320944798225   0.614301295002697   0.925390200382751   1.0
O282   O   0.443703486992753   0.937733540339558   0.489950679966000   1.0
O283   O   0.262316528110304   0.577860719026141   0.531530841078109   1.0
O284   O   0.556510063618568   0.437813046996844   0.990378848519299   1.0
O285   O   0.737287286950988   0.078561221400584   0.032733005552451   1.0
O286   O   0.680006240459498   0.994896803609443   0.978893466700754   1.0
O287   O   0.617566121521769   0.505816842739044   0.965182246861637   1.0
O288   O   0.319727819221988   0.494574331901035   0.478259531427383   1.0
O289   O   0.666610803239188   0.164403024064782   0.233693148799638   1.0
O290   O   0.623095598279079   0.344078528307627   0.157431650365822   1.0
O291   O   0.377121727671167   0.843629366965189   0.658349062031668   1.0
O292   O   0.332979325428283   0.663925502909500   0.731563375045674   1.0
O293   O   0.624167548379155   0.014879622057791   0.192159284132671   1.0
O294   O   0.676933631664589   0.456021894488423   0.190867354391919   1.0
O295   O   0.375648863125534   0.514631737938863   0.691346432688434   1.0
O296   O   0.575449775937706   0.114241840705688   0.426579767683151   1.0
O297   O   0.727464040018191   0.367728902294736   0.412579368386311   1.0
O298   O   0.272952553737341   0.867373933010214   0.911842991130214   1.0
O299   O   0.572180914627850   0.916772702462488   0.378337034983105   1.0
O300   O   0.382559551688367   0.004965576165503   0.464904662393671   1.0


# Number_of_total_atoms: 300
# Number_of_atom_type: 3
# Name_of_each_atom: C H O
# Number_of_each_atom: 100 160 40
# Created_by: Lihua Chen (lihua.chen@mse.gatech.edu)
# Tool: VASP
# K-points: 1 1 1
# Pseudopotential: PBE-HSE06
# Material_class: MC_Pol
# Geometry_class: GC_PD
# Bandgap_(eV): 6.24
