#======================================================================

# Note: Ordered slab of isotactic polyethyl acrylate
# Common_name: Ordered slab-100

#----------------------------------------------------------------------

data_1
_audit_creation_method   'vasp2cif'
_cell_length_a    15.2096004486
_cell_length_b    6.22679996493
_cell_length_c    35.4594993591
_cell_angle_alpha    90.0
_cell_angle_beta    90.0
_cell_angle_gamma    83.9143981936

_symmetry_space_group_name_H-M    'P 1'
loop_
_atom_site_label
_atom_site_type_symbol
_atom_site_fract_x
_atom_site_fract_y
_atom_site_fract_z
_atom_site_occupancy
C1   C   0.959751596986848   0.372996408114531   0.156847985489797   1.0
C2   C   0.928674421107601   0.358845241568822   0.391737600630634   1.0
C3   C   0.429148370153627   0.597023490956232   0.112057068619116   1.0
C4   C   0.391768821049560   0.583998207872327   0.352968756941294   1.0
C5   C   0.975456851875151   0.608618106456234   0.165869087702035   1.0
C6   C   0.939102085619282   0.597770985934751   0.399847271784289   1.0
C7   C   0.436891506585567   0.841309203706381   0.115451732857991   1.0
C8   C   0.398902823345573   0.828900902988124   0.355889575956809   1.0
C9   C   0.946833701441662   0.696075115663476   0.205300520746796   1.0
C10   C   0.910889482936518   0.683432926148541   0.439534669664205   1.0
C11   C   0.408993556670389   0.939656028852859   0.154347594902966   1.0
C12   C   0.376530389520895   0.921231293685459   0.395673320546514   1.0
C13   C   0.933311344603908   0.946637703226195   0.206102186985724   1.0
C14   C   0.899550632979739   0.933440174099267   0.440697768497017   1.0
C15   C   0.399227600678365   0.187733897788810   0.152048977036934   1.0
C16   C   0.364918000462602   0.170566556188945   0.395542826456037   1.0
C17   C   0.879502797852908   0.048039386155764   0.172680768765368   1.0
C18   C   0.847216882518367   0.034813344059543   0.406835659412010   1.0
C19   C   0.329384314558325   0.294097544313182   0.123632394473468   1.0
C20   C   0.294675605595017   0.279724473303247   0.367548084459955   1.0
C21   C   0.875472666794494   0.297856412721074   0.175105432159185   1.0
C22   C   0.843256066719384   0.284356839227122   0.408722500549523   1.0
C23   C   0.335689960707725   0.538647693974603   0.123093989742109   1.0
C24   C   0.300732124938527   0.523747221154984   0.366763246059584   1.0
C25   C   0.469911555731052   0.856609138490654   0.186895472348702   1.0
C26   C   0.443561163663418   0.838204714334339   0.425781359519817   1.0
C27   C   0.452436470918570   0.511090056995457   0.072626119247481   1.0
C28   C   0.409050981157755   0.494896948242413   0.313239132814218   1.0
C29   C   0.237244854511950   0.242360183647705   0.135171521363624   1.0
C30   C   0.202635557562317   0.230925578017526   0.379641787321781   1.0
C31   C   0.497908991483406   0.882569558552738   0.254538608659935   1.0
C32   C   0.476144367131333   0.846743001010950   0.493000875537838   1.0
C33   C   0.587178101330274   0.970687565722244   0.257322888563969   1.0
C34   C   0.547773079660537   0.999956188390740   0.495657856631731   1.0
C35   C   0.395439849899731   0.499010738578342   0.008358508900514   1.0
C36   C   0.341815588214743   0.477306000141411   0.250719294195271   1.0
C37   C   0.341900671161042   0.304843823027795   0.008022761774576   1.0
C38   C   0.281032231881142   0.298086097141265   0.252742736335321   1.0
C39   C   0.154083491980714   0.929573872262345   0.144857460814570   1.0
C40   C   0.123427054691469   0.918401310217874   0.394703709096170   1.0
C41   C   0.168681826757187   0.912328845354061   0.187460841653667   1.0
C42   C   0.140921557777610   0.913291307443487   0.437118779974405   1.0
C43   C   0.009399257627720   0.607279715715023   0.236668950475604   1.0
C44   C   0.970419445330599   0.580644417995941   0.470852820459207   1.0
C45   C   0.952613373014771   0.340087979783000   0.114079752244372   1.0
C46   C   0.928496736741764   0.315948540404335   0.349041595804188   1.0
C47   C   0.787431899480218   0.977127455083938   0.170826398756972   1.0
C48   C   0.753963542241010   0.971669314049500   0.404753416200194   1.0
C49   C   0.063083927820699   0.703259353128487   0.299001022688500   1.0
C50   C   0.020662700084436   0.626965265197796   0.535449532185055   1.0
C51   C   0.135858577149484   0.845550962462134   0.289593606802391   1.0
C52   C   0.112307597873624   0.705356303203665   0.533403917006503   1.0
C53   C   0.866158183788968   0.459179256988300   0.058364476184735   1.0
C54   C   0.846128166453077   0.410966529255610   0.290613580396126   1.0
C55   C   0.790596505027125   0.317306061983487   0.055252608930431   1.0
C56   C   0.766549830074887   0.283208196219164   0.286505726671564   1.0
C57   C   0.647969587628580   0.094547060753946   0.142087038150045   1.0
C58   C   0.620622998485125   0.090547408274304   0.371110405307825   1.0
C59   C   0.628279125084603   0.287366102371841   0.168479067824521   1.0
C60   C   0.604298371766284   0.302924559918125   0.392705386708769   1.0
H61   H   0.017217241385389   0.267859787867614   0.166419856251487   1.0
H62   H   0.985812591237348   0.261259098947051   0.403270823809024   1.0
H63   H   0.478991523448101   0.516459980503086   0.130608980932763   1.0
H64   H   0.444421464383431   0.504351904694886   0.370183485239579   1.0
H65   H   0.045633688171186   0.622590839210780   0.161424167346219   1.0
H66   H   0.007904404069038   0.623953717166614   0.394543318998238   1.0
H67   H   0.505125232315500   0.871862034462886   0.109306032967652   1.0
H68   H   0.465838114977323   0.862099658205999   0.347938232690780   1.0
H69   H   0.939178558516758   0.709453703755038   0.144876826055921   1.0
H70   H   0.898691517249866   0.691481292084873   0.379134110975492   1.0
H71   H   0.394766442023247   0.924358582769891   0.093910374940251   1.0
H72   H   0.353098970341797   0.911259278519296   0.335581567940025   1.0
H73   H   0.882053348543202   0.645590255971186   0.212316776867588   1.0
H74   H   0.845146704763579   0.636006073117855   0.445970883036544   1.0
H75   H   0.344776479324708   0.890413192116952   0.162011401154750   1.0
H76   H   0.314171717830177   0.869321523107132   0.405003405686671   1.0
H77   H   0.898951414369996   0.997596387776980   0.232229000288569   1.0
H78   H   0.864543084760655   0.986357940102508   0.466572251283466   1.0
H79   H   0.384597091164011   0.257710755620607   0.179943423816589   1.0
H80   H   0.348348048014884   0.230373796227823   0.424043750313253   1.0
H81   H   0.997064889090396   0.012827236387274   0.206994899846244   1.0
H82   H   0.963618600643393   0.997307379712225   0.441881548820469   1.0
H83   H   0.463092247390932   0.234432932446445   0.143508240365691   1.0
H84   H   0.428510910950138   0.224100256161520   0.388225798839230   1.0
H85   H   0.910842336687324   0.001146772106793   0.145743122210853   1.0
H86   H   0.879126199554747   0.986048577207633   0.380137796162330   1.0
H87   H   0.342770323843944   0.226154911400755   0.095495934848287   1.0
H88   H   0.306647174533374   0.212012916636539   0.339284603600532   1.0
H89   H   0.871928791077750   0.342647586029265   0.204895368385991   1.0
H90   H   0.836473648619176   0.331411638351525   0.438344013773865   1.0
H91   H   0.319161786889850   0.599254396888767   0.151411516968558   1.0
H92   H   0.288225139793681   0.583627192317827   0.395428799131132   1.0
H93   H   0.816668980437093   0.378131424240649   0.161310486396204   1.0
H94   H   0.786047456987284   0.363010647071107   0.393619819913731   1.0
H95   H   0.286707924161256   0.619488640840139   0.103820054536150   1.0
H96   H   0.248698392967718   0.603249469873383   0.348844709441899   1.0
H97   H   0.453554223350970   0.942384906720044   0.277227549106613   1.0
H98   H   0.432208426097929   0.859150214331585   0.517402490184537   1.0
H99   H   0.504895951507038   0.706303729640865   0.253864787235905   1.0
H100   H   0.504286630931581   0.679423636587451   0.489133308917445   1.0
H101   H   0.618351825940003   0.915042716830058   0.284045690165513   1.0
H102   H   0.587183879410738   0.962651764863864   0.521165720684955   1.0
H103   H   0.579069094204357   0.147295167321943   0.257697753164692   1.0
H104   H   0.518140145387740   0.167831442917198   0.497520187403147   1.0
H105   H   0.631021438962577   0.911746531091133   0.234398608075111   1.0
H106   H   0.592179680556590   0.981387951398830   0.471437391780725   1.0
H107   H   0.366151258672218   0.628750855003531   0.990177237805113   1.0
H108   H   0.314845483848110   0.609836304503162   0.232541149047272   1.0
H109   H   0.464366476327648   0.454816621532778   0.000586438268904   1.0
H110   H   0.408780506000340   0.418598431145291   0.241795147755006   1.0
H111   H   0.338116565558757   0.242996713772165   0.979212386322125   1.0
H112   H   0.271226150004232   0.235803694967252   0.224394311153262   1.0
H113   H   0.274509111819782   0.351004188168098   0.018077352954535   1.0
H114   H   0.215931837253166   0.358889469217779   0.263693114831881   1.0
H115   H   0.372815791652769   0.174468609992623   0.025812163963089   1.0
H116   H   0.309986515821365   0.163707350493922   0.270222930385728   1.0
H117   H   0.091523642436272   0.018985825725679   0.136979172747985   1.0
H118   H   0.060462610039849   0.005857904396194   0.386868128635896   1.0
H119   H   0.159309640984020   0.770685551977508   0.131724381470008   1.0
H120   H   0.128089530331629   0.755820142126780   0.383088819280616   1.0
H121   H   0.130488745639610   0.788291601033762   0.198757446825589   1.0
H122   H   0.095921939483297   0.811706327813141   0.450645225479569   1.0
H123   H   0.149551139014662   0.065079693738447   0.201910021129201   1.0
H124   H   0.130697590146752   0.074492150751624   0.449607229560989   1.0
H125   H   0.238008132468437   0.859912649056248   0.194038523112198   1.0
H126   H   0.208214974209056   0.840903539767204   0.443265804531208   1.0
H127   H   0.026256626623699   0.760043431140204   0.324089409697741   1.0
H128   H   0.983266362123906   0.695123336565274   0.559677895509481   1.0
H129   H   0.087052923001110   0.532066091033840   0.301803465042440   1.0
H130   H   0.024159394526457   0.451044619722992   0.536072885916646   1.0
H131   H   0.182867680549101   0.845222214871150   0.312869924190487   1.0
H132   H   0.148573500795941   0.662055243217715   0.559480407617635   1.0
H133   H   0.106868391395459   0.012023785987012   0.284977159856425   1.0
H134   H   0.107035414511124   0.881054142804999   0.530135913301393   1.0
H135   H   0.172153155913186   0.786749559480079   0.264380928033177   1.0
H136   H   0.150166423658007   0.630919653946862   0.509730441510953   1.0
H137   H   0.846768113982563   0.623696602297798   0.048625372927809   1.0
H138   H   0.833369497128373   0.573704512259354   0.278996893862043   1.0
H139   H   0.925198184318489   0.390550821655204   0.043378748895250   1.0
H140   H   0.905811863122047   0.327369622041395   0.278096332680391   1.0
H141   H   0.772127400602912   0.302764994040551   0.025554740152913   1.0
H142   H   0.751365414983837   0.266067091655195   0.256479512527740   1.0
H143   H   0.732355568430037   0.387761615026264   0.070772440889833   1.0
H144   H   0.708178693372261   0.367087521666242   0.300273479503488   1.0
H145   H   0.810233060570383   0.155657994524880   0.066437345866099   1.0
H146   H   0.779716118049855   0.121700937308589   0.298788783151302   1.0
H147   H   0.624988758521695   0.130119184592715   0.113372761539352   1.0
H148   H   0.601598570904990   0.108760149860885   0.341550706047428   1.0
H149   H   0.622924538583547   0.947962285273441   0.152472244572103   1.0
H150   H   0.589291304763307   0.959566274531610   0.384093487034164   1.0
H151   H   0.558135279395877   0.317691407311784   0.174938583075999   1.0
H152   H   0.534309788998989   0.345165361953768   0.398023292239181   1.0
H153   H   0.648929129492799   0.434349600436548   0.155956129756774   1.0
H154   H   0.628442741577217   0.436431856566450   0.377090271696296   1.0
H155   H   0.662254230084002   0.258539307254445   0.195480342211404   1.0
H156   H   0.636192452860911   0.291681027226780   0.420384952412562   1.0
O157   O   0.529317817376288   0.708105925572646   0.184493581814081   1.0
O158   O   0.512925647391107   0.724016594983681   0.420291366581509   1.0
O159   O   0.447499902003685   0.961522950541564   0.219973690232209   1.0
O160   O   0.415053804555185   0.906362957262914   0.461024016158149   1.0
O161   O   0.514302454585525   0.375014662991902   0.065059101078091   1.0
O162   O   0.469296634087463   0.355505830691698   0.304866773736613   1.0
O163   O   0.392313747121740   0.598193887225385   0.046353261207138   1.0
O164   O   0.346263910176049   0.581152944770380   0.288441607272780   1.0
O165   O   0.182558233294095   0.364665442746947   0.152272859922405   1.0
O166   O   0.145809798890760   0.360183339453108   0.393906105988428   1.0
O167   O   0.226446619416478   0.033991440368340   0.125991019165710   1.0
O168   O   0.194354937835797   0.017321759215427   0.374290081348839   1.0
O169   O   0.064453088723603   0.448567835418281   0.234060763354130   1.0
O170   O   0.014814560156232   0.404653031062068   0.468975827127736   1.0
O171   O   0.995605338054318   0.728948102583935   0.268636452921115   1.0
O172   O   0.966167304904040   0.707275765491787   0.502785299021767   1.0
O173   O   0.994108743672989   0.195282003358415   0.095849487680511   1.0
O174   O   0.977726980199925   0.175793653320234   0.332890856912762   1.0
O175   O   0.889593158414172   0.487787697279543   0.098504879419508   1.0
O176   O   0.863745962638063   0.448087662507192   0.331269727935364   1.0
O177   O   0.752310307234012   0.875818371997219   0.195276680356137   1.0
O178   O   0.713497031052398   0.896759058082871   0.430716943543835   1.0
O179   O   0.745590219206875   0.052639633648916   0.138475172788226   1.0
O180   O   0.717652963240909   0.027692510800492   0.370255675678571   1.0


# Number_of_total_atoms: 180
# Number_of_atom_type: 3
# Name_of_each_atom: C H O
# Number_of_each_atom: 60 96 24
# Created_by: Lihua Chen (lihua.chen@mse.gatech.edu)
# Tool: VASP
# K-points: 1 5 1
# Pseudopotential: PBE-HSE06
# Material_class: MC_Pol
# Geometry_class: GC_PD
# Bandgap_(eV): 5.80
