#======================================================================

# Note: Ordered slab of syndiotactic polyvinyl chloride
# Common_name: Ordered slab-100

#----------------------------------------------------------------------

data_1
_audit_creation_method   'vasp2cif'
_cell_length_a    35.0
_cell_length_b    5.0475797653
_cell_length_c    5.127989769
_cell_angle_alpha    90.0
_cell_angle_beta    90.0
_cell_angle_gamma    90.0

_symmetry_space_group_name_H-M    'P 1'
loop_
_atom_site_label
_atom_site_type_symbol
_atom_site_fract_x
_atom_site_fract_y
_atom_site_fract_z
_atom_site_occupancy
C1   C   0.279078748714220   0.111808887307845   0.750000000048750   1.0
C2   C   0.428699542997037   0.896285073290436   0.249999999951250   1.0
C3   C   0.425986748464290   0.896295580702834   0.750000000048750   1.0
C4   C   0.282675855726353   0.111450030324363   0.249999999951250   1.0
C5   C   0.281179908708374   0.947023902158215   0.500085838116831   1.0
C6   C   0.427410791718685   0.060730180649784   0.500008742624161   1.0
C7   C   0.427410791718685   0.060730180649784   0.999991257278339   1.0
C8   C   0.281179908708374   0.947023902158215   0.999914161785668   1.0
C9   C   0.571300484260107   0.103714879498824   0.750000000048750   1.0
C10   C   0.720921251285780   0.888191065481415   0.249999999951250   1.0
C11   C   0.717324171530791   0.888549922464897   0.750000000048750   1.0
C12   C   0.574013306049984   0.103704372086426   0.249999999951250   1.0
C13   C   0.572589235509881   0.939269849007992   0.499991257180838   1.0
C14   C   0.718820064034475   0.052976127499562   0.499914161688167   1.0
C15   C   0.718820064034475   0.052976127499562   0.000085838214332   1.0
C16   C   0.572589235509881   0.939269849007992   0.000008742721661   1.0
H17   H   0.256229095937819   0.815568318449756   0.010979251268793   1.0
H18   H   0.448422749631547   0.746494254474008   0.750000000048750   1.0
H19   H   0.260382825412229   0.262085354880057   0.249999999951250   1.0
H20   H   0.402233028368350   0.189901214234773   0.009513003042180   1.0
H21   H   0.306619449306943   0.820609207749193   0.988612021897346   1.0
H22   H   0.306619449306943   0.820609207749193   0.511388024612103   1.0
H23   H   0.402233028368350   0.189901214234773   0.490486990425048   1.0
H24   H   0.256229095937819   0.815568318449756   0.489020742198434   1.0
H25   H   0.452701736484457   0.188774513842724   0.509538521175905   1.0
H26   H   0.452701736484457   0.188774513842724   0.990461525333544   1.0
H27   H   0.406177809485896   0.747153792441942   0.249999999951250   1.0
H28   H   0.301134830291424   0.264407641117920   0.750000000048750   1.0
H29   H   0.547298263515543   0.811225427059647   0.009538514643133   1.0
H30   H   0.739617147330634   0.737914597909203   0.750000000048750   1.0
H31   H   0.551577250368453   0.253505698315251   0.249999999951250   1.0
H32   H   0.693380605178767   0.179390733153184   0.011388018079330   1.0
H33   H   0.597766944374506   0.810098726667597   0.990487036934496   1.0
H34   H   0.597766944374506   0.810098726667597   0.509513009574952   1.0
H35   H   0.693380605178767   0.179390733153184   0.488611975387897   1.0
H36   H   0.547298263515543   0.811225427059647   0.490461478824088   1.0
H37   H   0.743770904062188   0.184431622452614   0.510979257801559   1.0
H38   H   0.743770904062188   0.184431622452614   0.989020788707890   1.0
H39   H   0.698865115222858   0.735592311671340   0.249999999951250   1.0
H40   H   0.593822163256959   0.252846160347318   0.750000000048750   1.0
Cl41   Cl   0.233313033319320   0.306085756305876   0.750000000048750   1.0
Cl42   Cl   0.380850045427373   0.693086225242261   0.750000000048750   1.0
Cl43   Cl   0.327980472577366   0.312503254383692   0.249999999951250   1.0
Cl44   Cl   0.473706411654831   0.691638430006627   0.249999999951250   1.0
Cl45   Cl   0.526293588345169   0.308361593509595   0.750000000048750   1.0
Cl46   Cl   0.672019554679778   0.687496769132530   0.750000000048750   1.0
Cl47   Cl   0.619149954572627   0.306913798273960   0.249999999951250   1.0
Cl48   Cl   0.766686966680680   0.693914267210346   0.249999999951250   1.0


# Number_of_total_atoms: 48
# Number_of_atom_type: 3
# Name_of_each_atom: C H Cl
# Number_of_each_atom: 16 24 8
# Created_by: Lihua Chen (lihua.chen@mse.gatech.edu)
# Tool: VASP
# K-points: 1 6 6
# Pseudopotential: PBE-HSE06
# Material_class: MC_Pol
# Geometry_class: GC_PD
# Bandgap_(eV): 6.66
