#======================================================================

# Note: Ordered slab of polyvinylidene fluoride (alpha)
# Common_name: Ordered slab-100

#----------------------------------------------------------------------

data_1
_audit_creation_method   'vasp2cif'
_cell_length_a    4.8775000572
_cell_length_b    4.58549976353
_cell_length_c    29.8768997192
_cell_angle_alpha    90.0
_cell_angle_beta    90.0
_cell_angle_gamma    90.0211029049

_symmetry_space_group_name_H-M    'P 1'
loop_
_atom_site_label
_atom_site_type_symbol
_atom_site_fract_x
_atom_site_fract_y
_atom_site_fract_z
_atom_site_occupancy
C1   C   0.172445064169416   0.086050602609532   0.025650666142369   1.0
C2   C   0.158105993545156   0.074361472950400   0.322119080285134   1.0
C3   C   0.430450816005042   0.586148107242018   0.025729766719465   1.0
C4   C   0.416599454266567   0.574464316981448   0.322118051423267   1.0
C5   C   0.909030282022790   0.053940436233766   0.172117926130269   1.0
C6   C   0.895861622468360   0.040127678772869   0.468032890406541   1.0
C7   C   0.633226840206419   0.553866660868685   0.172182710999124   1.0
C8   C   0.620457510843259   0.540083865780119   0.468111303807874   1.0
C9   C   0.439145195237231   0.251118768872168   0.029810732130017   1.0
C10   C   0.425291182827557   0.239122281939508   0.325785408955880   1.0
C11   C   0.163755171636105   0.751066875714592   0.029861466734282   1.0
C12   C   0.149487702413367   0.739054422057194   0.325870187949818   1.0
C13   C   0.641898021917825   0.218515272973924   0.175841971467534   1.0
C14   C   0.629152184098466   0.204997656669377   0.472114146910052   1.0
C15   C   0.900417590494776   0.718612934234997   0.175864549199822   1.0
C16   C   0.887192602866619   0.705149621937267   0.472212324492901   1.0
F17   F   0.994389679579015   0.193244461447378   0.060264046219011   1.0
F18   F   0.982445388913852   0.180315968670236   0.357084638250747   1.0
F19   F   0.042486660921398   0.165320921037093   0.984852126580734   1.0
F20   F   0.024158737396988   0.156015106117998   0.281682663684457   1.0
F21   F   0.034224292450332   0.636829933335754   0.216316255570398   1.0
F22   F   0.017604181320728   0.625748258101559   0.512959428507337   1.0
F23   F   0.466203110965530   0.113011817620304   0.140816738198346   1.0
F24   F   0.451885885364483   0.098585783422749   0.437292852571062   1.0
F25   F   0.076169234538696   0.612818612161909   0.140901461183915   1.0
F26   F   0.064982026657148   0.598039376209087   0.437557205042431   1.0
F27   F   0.507941400017380   0.136347806876543   0.216254503563356   1.0
F28   F   0.498024781210972   0.124575666043718   0.512753186875663   1.0
F29   F   0.561176322693605   0.666164225868698   0.985027487148713   1.0
F30   F   0.550347526531922   0.656526833505751   0.281686131736762   1.0
F31   F   0.608008859355152   0.692832062413054   0.060486942359198   1.0
F32   F   0.592498620817395   0.680124527586067   0.357106988641014   1.0
H33   H   0.493790874960062   0.632195992184862   0.197952833343393   1.0
H34   H   0.478778242070490   0.619203222295397   0.493494074791776   1.0
H35   H   0.995876847789788   0.106909266111998   0.139590502378937   1.0
H36   H   0.980684822620518   0.091575819525787   0.435316297150642   1.0
H37   H   0.048648328658395   0.132618411669199   0.197841718203747   1.0
H38   H   0.037561858366608   0.119851759697035   0.493378840895453   1.0
H39   H   0.523276879506405   0.199367653344240   0.062550229816665   1.0
H40   H   0.512337873761375   0.185908974225789   0.358274489778843   1.0
H41   H   0.079289239252852   0.699783294134285   0.062612315312450   1.0
H42   H   0.062653372045588   0.686074891677890   0.358392573734470   1.0
H43   H   0.581221300883826   0.171784983168649   0.004497127337601   1.0
H44   H   0.564688675714393   0.160799230856014   0.300015571378680   1.0
H45   H   0.546213784898363   0.607078184977901   0.139694604038375   1.0
H46   H   0.535828541935949   0.592174379633846   0.435420539832442   1.0
H47   H   0.021738680003530   0.671303243920697   0.004563979435083   1.0
H48   H   0.009856717468018   0.660377553589960   0.300148456412209   1.0


# Number_of_total_atoms: 48
# Number_of_atom_type: 3
# Name_of_each_atom: C F H
# Number_of_each_atom: 16 16 16
# Created_by: Lihua Chen (lihua.chen@mse.gatech.edu)
# Tool: VASP
# K-points: 6 6 1
# Pseudopotential: PBE-HSE06
# Material_class: MC_Pol
# Geometry_class: GC_PD
# Bandgap_(eV): 9.33
