#======================================================================

# Note: Ordered slab of polyvinylidene fluoride (beta)
# Common_name: Ordered slab-010

#----------------------------------------------------------------------

data_1
_audit_creation_method   'vasp2cif'
_cell_length_a    2.5357599258
_cell_length_b    30.0
_cell_length_c    4.2209601402
_cell_angle_alpha    90.0
_cell_angle_beta    90.0
_cell_angle_gamma    90.0

_symmetry_space_group_name_H-M    'P 1'
loop_
_atom_site_label
_atom_site_type_symbol
_atom_site_fract_x
_atom_site_fract_y
_atom_site_fract_z
_atom_site_occupancy
C1   C   0.249999999822535   0.287302970334217   0.874444366215727   1.0
C2   C   0.249999999822535   0.428913030550333   0.377595386816189   1.0
C3   C   0.749999999861977   0.286666515762619   0.067925727785735   1.0
C4   C   0.749999999861977   0.429010538586574   0.570935873937010   1.0
C5   C   0.249999999822535   0.571086677335572   0.877589725234685   1.0
C6   C   0.249999999822535   0.712696824322080   0.374437456897731   1.0
C7   C   0.749999999861977   0.570989110832379   0.070930988608573   1.0
C8   C   0.749999999861977   0.713333864271291   0.567921827225049   1.0
F9   F   0.749999999861977   0.533131229793952   0.274640009092799   1.0
F10   F   0.749999999861977   0.391293874391280   0.776025583048721   1.0
F11   F   0.749999999861977   0.324197429008784   0.275632266145664   1.0
F12   F   0.749999999861977   0.466868819650387   0.774644823345227   1.0
F13   F   0.749999999861977   0.248534998217451   0.266874436541848   1.0
F14   F   0.749999999861977   0.675802879550496   0.775626997577639   1.0
F15   F   0.749999999861977   0.608706192694285   0.276019541685834   1.0
F16   F   0.749999999861977   0.751465398904323   0.766866711492625   1.0
H17   H   0.249999999822535   0.541717537030813   0.726172973084637   1.0
H18   H   0.249999999822535   0.399349048300671   0.228066945536043   1.0
H19   H   0.249999999822535   0.317214104317536   0.728614043896393   1.0
H20   H   0.249999999822535   0.458282172069261   0.226177363467301   1.0
H21   H   0.249999999822535   0.258428866482447   0.717977000398839   1.0
H22   H   0.249999999822535   0.682785988997438   0.228609749476597   1.0
H23   H   0.249999999822535   0.600650618533280   0.728059975530186   1.0
H24   H   0.249999999822535   0.741571214729198   0.217970250242651   1.0


# Number_of_total_atoms: 24
# Number_of_atom_type: 3
# Name_of_each_atom: C F H
# Number_of_each_atom: 8 8 8
# Created_by: Lihua Chen (lihua.chen@mse.gatech.edu)
# Tool: VASP
# K-points: 12 1 7
# Pseudopotential: PBE-HSE06
# Material_class: MC_Pol
# Geometry_class: GC_PD
# Bandgap_(eV): 7.93
