#======================================================================

# Note: Ordered slab of polyvinylidene fluoride (gamma)
# Common_name: Ordered slab-100

#----------------------------------------------------------------------

data_1
_audit_creation_method   'vasp2cif'
_cell_length_a    8.9722995758
_cell_length_b    4.65299987795
_cell_length_c    32.1585006714
_cell_angle_alpha    90.0
_cell_angle_beta    90.0
_cell_angle_gamma    89.7061004642

_symmetry_space_group_name_H-M    'P 1'
loop_
_atom_site_label
_atom_site_type_symbol
_atom_site_fract_x
_atom_site_fract_y
_atom_site_fract_z
_atom_site_occupancy
C1   C   0.579367849277588   0.414688715262379   0.039292793779019   1.0
C2   C   0.581754714140139   0.408742908246182   0.343646154955437   1.0
C3   C   0.835656970938153   0.425931134330469   0.074655686786919   1.0
C4   C   0.837059406517604   0.423132218412327   0.379769728328668   1.0
C5   C   0.078749993587238   0.409246520536406   0.035780401490271   1.0
C6   C   0.081813321827312   0.408741170110119   0.341154799365604   1.0
C7   C   0.334769436595458   0.428524214152382   0.000510888087298   1.0
C8   C   0.337101504892125   0.423151432735750   0.304996504198421   1.0
C9   C   0.581730745324862   0.916511053198121   0.191496734101250   1.0
C10   C   0.583069448687013   0.916405296247177   0.496943930973508   1.0
C11   C   0.837097447612180   0.901517560231838   0.227569821824680   1.0
C12   C   0.839182687949325   0.896290971055336   0.532087144322894   1.0
C13   C   0.081662842376495   0.916741590155517   0.188944817341792   1.0
C14   C   0.083675434908798   0.910246524695566   0.493336261667913   1.0
C15   C   0.337040702170377   0.902154762045768   0.152871010993650   1.0
C16   C   0.340100575120132   0.899585771710498   0.458069370388330   1.0
C17   C   0.673027461922651   0.337278361882419   0.077248245398806   1.0
C18   C   0.674438864336373   0.332140096868059   0.381758873007684   1.0
C19   C   0.914041060255649   0.345034374112672   0.034015018959181   1.0
C20   C   0.917254514278632   0.343654649331370   0.339517956187166   1.0
C21   C   0.172079309167629   0.335289161933232   0.997647878735549   1.0
C22   C   0.174489188943987   0.332310911337444   0.303037861878813   1.0
C23   C   0.414786281570457   0.348504310354585   0.040812528842608   1.0
C24   C   0.417120367250177   0.344351079775471   0.345313591030887   1.0
C25   C   0.674113935527537   0.992985423498084   0.229592532234854   1.0
C26   C   0.676190420867272   0.990621568142728   0.535029482640937   1.0
C27   C   0.916685824308736   0.980893972617373   0.187265716278255   1.0
C28   C   0.918771313314245   0.976526462339493   0.491787681034545   1.0
C29   C   0.173999517707792   0.993581944127392   0.150853033831410   1.0
C30   C   0.177070587336267   0.988563504823098   0.455453679171633   1.0
C31   C   0.416828503190942   0.981520995440597   0.193133502732671   1.0
C32   C   0.418031430193530   0.980564694479128   0.498724860797331   1.0
F33   F   0.664057241675266   0.036622527574522   0.084844714562635   1.0
F34   F   0.666795895379686   0.031009871240805   0.389170755125697   1.0
F35   F   0.848443069403366   0.490514352006883   0.999968201842236   1.0
F36   F   0.852102565775539   0.488556189011362   0.305273383263000   1.0
F37   F   0.113657188733917   0.458481588560708   0.961298689196482   1.0
F38   F   0.113136626918468   0.454788751416288   0.266237912819328   1.0
F39   F   0.392809415306210   0.050649740669947   0.049232850703987   1.0
F40   F   0.393527590166691   0.047600073096362   0.354189981376742   1.0
F41   F   0.613474950929628   0.870952175974452   0.266426728278027   1.0
F42   F   0.618467072196673   0.868286516655132   0.571446385966532   1.0
F43   F   0.891496566306998   0.277721326667269   0.178460478872388   1.0
F44   F   0.895296033760253   0.274371883873272   0.483399311541703   1.0
F45   F   0.164982430962077   0.294803925248296   0.143483949342304   1.0
F46   F   0.166789245302844   0.289420884185901   0.448019569917953   1.0
F47   F   0.352485796681243   0.836446537743683   0.227361702062673   1.0
F48   F   0.353280907600649   0.835086280050049   0.532780718504270   1.0
F49   F   0.612601662756859   0.461473314639846   0.114000423199656   1.0
F50   F   0.613326750444187   0.454274502407870   0.418577301034006   1.0
F51   F   0.890005795741281   0.048519192032913   0.025614714099490   1.0
F52   F   0.893995672624200   0.046549894291004   0.330804349923120   1.0
F53   F   0.167997908074334   0.033766847964095   0.990351529466778   1.0
F54   F   0.166624516017514   0.031289121033794   0.295557358307846   1.0
F55   F   0.349273484398090   0.491495490578423   0.075007802101609   1.0
F56   F   0.352109245973111   0.490441710814515   0.379466564649718   1.0
F57   F   0.665036029656051   0.294148380281129   0.237032404164559   1.0
F58   F   0.671080405283625   0.292245074547182   0.542243720793813   1.0
F59   F   0.852491228311891   0.835211282083186   0.153055930536723   1.0
F60   F   0.854024794603738   0.833864374581978   0.457543748780495   1.0
F61   F   0.113509740906224   0.871746767527974   0.114029421896937   1.0
F62   F   0.117285598878482   0.865456288003202   0.418643437741181   1.0
F63   F   0.392084295514621   0.278599706258724   0.201879547550064   1.0
F64   F   0.392478457633189   0.277046680074875   0.507151391724413   1.0
H65   H   0.626307579666410   0.300656423885528   0.012666189866430   1.0
H66   H   0.627689344346436   0.292282609342322   0.317120726088078   1.0
H67   H   0.841572394110656   0.658836096126535   0.078303607415776   1.0
H68   H   0.841985567653197   0.656145068126825   0.383389157811131   1.0
H69   H   0.091172655315191   0.638733365657643   0.042119824622958   1.0
H70   H   0.094465766063607   0.638399053138251   0.347300517444722   1.0
H71   H   0.394313092333235   0.331509213405617   0.974289334921963   1.0
H72   H   0.395758301531245   0.324788108973600   0.278798582366974   1.0
H73   H   0.595638413291745   0.686866631060681   0.185354154102008   1.0
H74   H   0.596707424262199   0.686879640087668   0.490637717579318   1.0
H75   H   0.895414281972769   0.999121422403491   0.253799799519626   1.0
H76   H   0.898507783219515   0.992511629136317   0.558314737341988   1.0
H77   H   0.126873426659955   0.033136083824544   0.215492330236096   1.0
H78   H   0.129874084410574   0.023550761438820   0.520046503542993   1.0
H79   H   0.343022329818403   0.669098648658007   0.149255140195791   1.0
H80   H   0.347191401233914   0.666649345929564   0.454419019133979   1.0
H81   H   0.591737149078412   0.644969271886779   0.033564470025517   1.0
H82   H   0.594627256204348   0.638290368654005   0.337440098945869   1.0
H83   H   0.895027121120791   0.327319958941125   0.100716582904916   1.0
H84   H   0.895720219345733   0.325373434408434   0.406020130094753   1.0
H85   H   0.124137934964381   0.291981532046236   0.062306062817889   1.0
H86   H   0.127963584989963   0.292746327203084   0.367699042231777   1.0
H87   H   0.338422031811817   0.661880834549741   0.997214870483909   1.0
H88   H   0.342143721812242   0.656075024891152   0.301257770524963   1.0
H89   H   0.627236351995180   0.032470431569820   0.164948122922617   1.0
H90   H   0.627792106170531   0.033409801413491   0.470388214050729   1.0
H91   H   0.843136464319990   0.668478727505160   0.231214451336641   1.0
H92   H   0.843652756019289   0.662844425909469   0.535302238914220   1.0
H93   H   0.095843674730432   0.687193882773535   0.195131770904695   1.0
H94   H   0.097231143717906   0.679813718006237   0.498948549120371   1.0
H95   H   0.395300010079147   0.999653375808855   0.126623130800354   1.0
H96   H   0.399024578752638   0.998102333494067   0.432013544515776   1.0


# Number_of_total_atoms: 96
# Number_of_atom_type: 3
# Name_of_each_atom: C F H
# Number_of_each_atom: 32 32 32
# Created_by: Lihua Chen (lihua.chen@mse.gatech.edu)
# Tool: VASP
# K-points: 3 6 1
# Pseudopotential: PBE-HSE06
# Material_class: MC_Pol
# Geometry_class: GC_PD
# Bandgap_(eV): 8.15
