#======================================================================

# Note: Ordered slab of polyethylene
# Common_name: Ordered slab-010

#----------------------------------------------------------------------

data_1
_audit_creation_method   'vasp2cif'
_cell_length_a    6.7899999619
_cell_length_b    24.8292007446
_cell_length_c    2.5638999939
_cell_angle_alpha    90.0
_cell_angle_beta    90.0
_cell_angle_gamma    90.0

_symmetry_space_group_name_H-M    'P 1'
loop_
_atom_site_label
_atom_site_type_symbol
_atom_site_fract_x
_atom_site_fract_y
_atom_site_fract_z
_atom_site_occupancy
C1   C   0.043522645152258   0.159414058192034   0.249999950799968   1.0
C2   C   0.044465655639662   0.364666997473975   0.249999642442731   1.0
C3   C   0.956168300896145   0.135133698033158   0.749999959341061   1.0
C4   C   0.955964832340534   0.340693485370615   0.749999645158624   1.0
C5   C   0.455849965037736   0.055177799433267   0.750000263871726   1.0
C6   C   0.456180343349011   0.260740265719250   0.750000134135512   1.0
C7   C   0.544372712100795   0.031213392568382   0.250000248436884   1.0
C8   C   0.543553410662163   0.236462447592665   0.250000129217689   1.0
H9   H   0.204026811227671   0.153563448463117   0.249999937409491   1.0
H10   H   0.204729889858754   0.358231573450091   0.249999638110609   1.0
H11   H   0.019133985525698   0.203253389786489   0.249999930421922   1.0
H12   H   0.022068384139530   0.408555220322064   0.249999674715184   1.0
H13   H   0.795628531744235   0.140938552918598   0.749999940299560   1.0
H14   H   0.795555045900166   0.347163304899468   0.749999678993966   1.0
H15   H   0.980826358487384   0.091306414297421   0.749999939307600   1.0
H16   H   0.978166992139649   0.296761314513510   0.749999652487304   1.0
H17   H   0.477993225402010   0.099112373263864   0.750000263831133   1.0
H18   H   0.480812553001123   0.304565524093242   0.750000157163306   1.0
H19   H   0.295444189587755   0.048693711976583   0.750000252154607   1.0
H20   H   0.295642107920067   0.254927286617317   0.750000159418569   1.0
H21   H   0.522045357056555   0.987323003217213   0.250000240879970   1.0
H22   H   0.519168101104121   0.192623242043439   0.250000149482062   1.0
H23   H   0.704626286162068   0.037662126523685   0.250000265815608   1.0
H24   H   0.704054438569344   0.242317377921033   0.250000141892556   1.0


# Number_of_total_atoms: 24
# Number_of_atom_type: 2
# Name_of_each_atom: C H
# Number_of_each_atom: 8 16
# Created_by: Lihua Chen (lihua.chen@mse.gatech.edu)
# Tool: VASP
# K-points: 4 1 12
# Pseudopotential: PBE-HSE06
# Material_class: MC_Pol
# Geometry_class: GC_PD
# Bandgap_(eV): 6.65
