#======================================================================

# Note: Ordered slab of polyethylene oxide
# Common_name: Ordered slab-010

#----------------------------------------------------------------------

data_1
_audit_creation_method   'vasp2cif'
_cell_length_a    7.712100029
_cell_length_b    28.6392993927
_cell_length_c    15.6648998261
_cell_angle_alpha    90.0
_cell_angle_beta    103.427902222
_cell_angle_gamma    90.0

_symmetry_space_group_name_H-M    'P 1'
loop_
_atom_site_label
_atom_site_type_symbol
_atom_site_fract_x
_atom_site_fract_y
_atom_site_fract_z
_atom_site_occupancy
C1   C   0.885912871661304   0.354303616154489   0.397488783949193   1.0
C2   C   0.399668389471202   0.351769484910818   0.403494118736951   1.0
C3   C   0.600489169869817   0.124568432114245   0.596632018487206   1.0
C4   C   0.072129333732747   0.074140621342302   0.472946895358369   1.0
C5   C   0.927892196308399   0.402145940399244   0.527026779431345   1.0
C6   C   0.415918646181900   0.307176192906546   0.535111328658530   1.0
C7   C   0.584037158788931   0.169083830248951   0.464931349499857   1.0
C8   C   0.150130423775380   0.033234560583764   0.433188099783941   1.0
C9   C   0.849833694932869   0.443056776263120   0.566753734148790   1.0
C10   C   0.330245559121295   0.267522923250802   0.574263144023014   1.0
C11   C   0.669642576477386   0.208704234270826   0.425655107190956   1.0
C12   C   0.580629375720427   0.028738082952309   0.365178626450550   1.0
C13   C   0.419473563794995   0.447547157186783   0.634907044840027   1.0
C14   C   0.896217529373338   0.270039662487818   0.638687003018113   1.0
C15   C   0.103701458865672   0.206148548519074   0.361250339979705   1.0
C16   C   0.403318986827017   0.010655107187645   0.377580924939721   1.0
C17   C   0.596769976011771   0.465619275298586   0.622476527681229   1.0
C18   C   0.064355985392453   0.247878828040953   0.623337147673602   1.0
C19   C   0.114187053243668   0.121947233329450   0.602525628334284   1.0
C20   C   0.707598222325124   0.084907790461998   0.282035890520703   1.0
C21   C   0.641592589345073   0.132719803701576   0.694544259152792   1.0
C22   C   0.853789957347900   0.363734432525220   0.300145390861793   1.0
C23   C   0.549317032931476   0.036961732975172   0.885495275614211   1.0
C24   C   0.450460781752938   0.439265449086712   0.114490665667546   1.0
C25   C   0.935033126922264   0.269187561755437   0.103313522943594   1.0
C26   C   0.064914349993231   0.206966069069672   0.896750834323008   1.0
C27   C   0.706333531312595   0.008700360932153   0.871736607912958   1.0
C28   C   0.293351802914522   0.467527119722405   0.128142779511620   1.0
C29   C   0.771509857233717   0.242747599594239   0.113093751775743   1.0
C30   C   0.228333353207127   0.233464769646098   0.886982499480368   1.0
C31   C   0.092268158709914   0.046535514753558   0.785088902958776   1.0
C32   C   0.907585463378695   0.429732902143165   0.214917380354606   1.0
C33   C   0.392488112261937   0.286732082332740   0.200096261667007   1.0
C34   C   0.607512083707093   0.189631276880483   0.799974539146547   1.0
C35   C   0.951431239333836   0.013209862933394   0.801622259396083   1.0
C36   C   0.048374381284546   0.463061383221657   0.198360510943658   1.0
C37   C   0.511874826897575   0.250833324651772   0.172096854229032   1.0
C38   C   0.487932490692167   0.225493903774179   0.827918721487592   1.0
C39   C   0.146297632180037   0.112506554876148   0.699862248059027   1.0
C40   C   0.358521569375263   0.343601464005935   0.305587042608778   1.0
C41   C   0.292451871525977   0.391364255066250   0.717977073617725   1.0
C42   C   0.935543403139661   0.228312331430452   0.376573273310754   1.0
C43   C   0.210700862392592   0.146726377365475   0.277898237246539   1.0
C44   C   0.789377257271944   0.329501681836305   0.722022407645809   1.0
C45   C   0.965736764801314   0.142037602292703   0.969764278264343   1.0
C46   C   0.034434571204770   0.334034778904453   0.030188513054050   1.0
C47   C   0.540868094817412   0.379270344208002   0.027901135045809   1.0
C48   C   0.459136767797347   0.096989042262969   0.972084529856652   1.0
C49   C   0.976874454965191   0.366240318216022   0.952148572132010   1.0
C50   C   0.023386935266608   0.109854227269217   0.047829392276853   1.0
C51   C   0.525094910612282   0.126095402469851   0.053664606213317   1.0
C52   C   0.149453108443033   0.112366354954773   0.203613474317677   1.0
C53   C   0.850754058094353   0.363814124739811   0.796370342685719   1.0
C54   C   0.344639968653908   0.356569567870658   0.792060460155930   1.0
C55   C   0.655396680472037   0.119690724858877   0.207935312346933   1.0
C56   C   0.474985195655364   0.350163025948674   0.946319765803224   1.0
H57   H   0.312501550589232   0.236917490421398   0.530604476133284   1.0
H58   H   0.417024415497572   0.256807028195745   0.637247526738037   1.0
H59   H   0.582848153758889   0.219372516863793   0.362644431938591   1.0
H60   H   0.165456255540889   0.002893068864040   0.477590328729825   1.0
H61   H   0.834261021029910   0.473368154611606   0.522264090830305   1.0
H62   H   0.687380026189253   0.239346229686312   0.469225266108594   1.0
H63   H   0.336817325510950   0.384603026642665   0.417256266755729   1.0
H64   H   0.683849286086186   0.475059154579668   0.686406075492883   1.0
H65   H   0.147813158620316   0.234248148297006   0.685009600056340   1.0
H66   H   0.852091250399674   0.241928039894169   0.314886922918142   1.0
H67   H   0.663599450337713   0.091776859660740   0.582862680927676   1.0
H68   H   0.940357253262086   0.452832213505921   0.629651362776151   1.0
H69   H   0.807831242130234   0.323776752437297   0.408784771077855   1.0
H70   H   0.316260874274732   0.001238823096301   0.313634506467181   1.0
H71   H   0.059722618998592   0.023519862420550   0.370225855514690   1.0
H72   H   0.067519499785909   0.409805767888095   0.526504626637958   1.0
H73   H   0.409510164580738   0.339654435246210   0.571839769877542   1.0
H74   H   0.192418725137969   0.152448944688018   0.591252375345690   1.0
H75   H   0.868000081923242   0.331715755999063   0.263811121638113   1.0
H76   H   0.380010385789184   0.375698700494702   0.270967470873984   1.0
H77   H   0.620199250804902   0.100595680729931   0.729112569367501   1.0
H78   H   0.972745696487259   0.129078761998244   0.574394731470363   1.0
H79   H   0.027389075671138   0.347222709051010   0.425613347299802   1.0
H80   H   0.590696149912397   0.136565147974103   0.428358590846003   1.0
H81   H   0.543511093027831   0.354894110173724   0.430566568623647   1.0
H82   H   0.456665532363296   0.121371366477348   0.569576479224878   1.0
H83   H   0.932453220025465   0.066503830948406   0.473395723995836   1.0
H84   H   0.556972492206711   0.299073584038474   0.539847692053669   1.0
H85   H   0.442916448318044   0.177146121357573   0.460084059778076   1.0
H86   H   0.073821087729868   0.105748338629091   0.433234872197652   1.0
H87   H   0.926354449258575   0.370551102746035   0.566793279846657   1.0
H88   H   0.132279176618525   0.144527117199715   0.736227068859641   1.0
H89   H   0.000920587094932   0.191418036006027   0.832983032411803   1.0
H90   H   0.862082230962599   0.387569273006541   0.958782984945053   1.0
H91   H   0.515159752116126   0.421937578026686   0.176368485303847   1.0
H92   H   0.733214619694280   0.206882357922140   0.797143368371316   1.0
H93   H   0.266623888883821   0.269534011634143   0.202817076430947   1.0
H94   H   0.798947975936933   0.450214671832072   0.231491397790897   1.0
H95   H   0.200865382214445   0.026033562286244   0.768515020737240   1.0
H96   H   0.445254841431456   0.252183729403036   0.776847599304666   1.0
H97   H   0.554410109915651   0.224117288086468   0.223135969060408   1.0
H98   H   0.017150318120358   0.986618007071435   0.849211375904069   1.0
H99   H   0.115809467660654   0.480843443578394   0.259434968605980   1.0
H100   H   0.636708003033952   0.161587327394791   0.849225131813419   1.0
H101   H   0.363590550639337   0.314823507852040   0.150936538108489   1.0
H102   H   0.853029034886745   0.409720815467779   0.154747594144560   1.0
H103   H   0.146873247376121   0.066536790642637   0.845270337349831   1.0
H104   H   0.307312666819129   0.245133761744917   0.951462889179275   1.0
H105   H   0.692514553251023   0.231073210488965   0.048622644063542   1.0
H106   H   0.884032271331101   0.995426711375444   0.740539079187783   1.0
H107   H   0.998946957393578   0.284788666320260   0.167040909630330   1.0
H108   H   0.982639558184189   0.489653892736037   0.150781462934347   1.0
H109   H   0.564983262910154   0.243225214953725   0.887308679554415   1.0
H110   H   0.484538382389282   0.054304875253031   0.823648685445093   1.0
H111   H   0.969986362088797   0.231252910141130   0.916220657669946   1.0
H112   H   0.029954464537866   0.244854817289728   0.083967565962055   1.0
H113   H   0.548254771774261   0.463065109251360   0.095965628712143   1.0
H114   H   0.425584047558303   0.979238681455861   0.419415627863124   1.0
H115   H   0.451551995895507   0.013158194222541   0.904037235209231   1.0
H116   H   0.434702705170579   0.233137144866390   0.112691578496140   1.0
H117   H   0.782536558524846   0.142289250807544   0.717627760099241   1.0
H118   H   0.717282276156027   0.376589010903110   0.275772733968218   1.0
H119   H   0.282749390806913   0.099603442437342   0.724199383267944   1.0
H120   H   0.185799832663150   0.264216152252338   0.845443404154530   1.0
H121   H   0.813867830365304   0.212003195532475   0.154673018819402   1.0
H122   H   0.343794168320947   0.495883040705586   0.174920888210977   1.0
H123   H   0.655792635151279   0.980398222551436   0.824848405052229   1.0
H124   H   0.217549511285995   0.334058398301600   0.282541055084124   1.0
H125   H   0.574479155077427   0.497020446420834   0.580601580316575   1.0
H126   H   0.779691865381068   0.993025990410352   0.933870942326500   1.0
H127   H   0.972039919127369   0.257384996380409   0.423069179232385   1.0
H128   H   0.950585078153715   0.388023602543726   0.780971834628858   1.0
H129   H   0.049748327260495   0.088130238570159   0.219064593284820   1.0
H130   H   0.640771793648852   0.147092049450990   0.047198648883381   1.0
H131   H   0.359386437349400   0.329132201494495   0.952786785062152   1.0
H132   H   0.219984663119654   0.483128398484972   0.065936508515215   1.0
H133   H   0.138292600604188   0.088557878672326   0.041245608560701   1.0
H134   H   0.417937339637007   0.149767256837215   0.062058995604993   1.0
H135   H   0.582215192080483   0.326522345465612   0.937902272057059   1.0
H136   H   0.439998269168164   0.331174592834309   0.776419908750853   1.0
H137   H   0.087783986923782   0.389621602587837   0.948169868551382   1.0
H138   H   0.399426211311315   0.119871242428459   0.916739424849247   1.0
H139   H   0.027837924032127   0.218818340090969   0.576812837635764   1.0
H140   H   0.083421829711945   0.354748631005869   0.090011157552830   1.0
H141   H   0.916781135660344   0.121318435154336   0.909946382323547   1.0
H142   H   0.357441688497090   0.072209811032856   0.983127391019451   1.0
H143   H   0.642448247474455   0.404083766934363   0.016848281223155   1.0
H144   H   0.143119936162094   0.311289307586677   0.020118610745890   1.0
H145   H   0.857008187746203   0.164764573947110   0.979836103254506   1.0
H146   H   0.912564123855105   0.086441413260850   0.051806669755869   1.0
H147   H   0.560115620978280   0.145104899052313   0.223583336003365   1.0
H148   H   0.600685835371905   0.356394663762778   0.083236939161168   1.0
H149   H   0.736173670301497   0.384297182515141   0.805714679112349   1.0
H150   H   0.264133839396763   0.091913717356569   0.194303103160720   1.0
H151   H   0.654125698050784   0.000093288924163   0.342234510687966   1.0
H152   H   0.346046300598743   0.476196615189607   0.657876132430772   1.0
H153   H   0.190890543344189   0.233122522141791   0.343272404333710   1.0
H154   H   0.660893899638417   0.041543722684665   0.428388722429880   1.0
H155   H   0.339138766315116   0.434751955943042   0.571708164178233   1.0
H156   H   0.823919537558524   0.286794351338401   0.577503723563012   1.0
H157   H   0.175959577803411   0.189394916799841   0.422442347074792   1.0
H158   H   0.787371099933736   0.056524851865106   0.262850979184108   1.0
H159   H   0.809036038257368   0.243071699071280   0.656683937591339   1.0
H160   H   0.695289737030784   0.304261879960151   0.739573120941238   1.0
H161   H   0.304629139611670   0.171990370035381   0.260276727454254   1.0
H162   H   0.787129436584493   0.103032478941344   0.339696543595466   1.0
H163   H   0.212950842495168   0.373251592776029   0.660292272162614   1.0
H164   H   0.721684092336318   0.348590184776420   0.662870444732192   1.0
H165   H   0.278542773893094   0.127678781673580   0.337075121741464   1.0
H166   H   0.774678076261218   0.138641605255430   0.200508332274303   1.0
H167   H   0.212659174360091   0.419738108871172   0.737175617480204   1.0
H168   H   0.225385594356908   0.337594515788027   0.799465683758612   1.0
O169   O   0.321277711292652   0.046787570647062   0.418723523908234   1.0
O170   O   0.678828794574876   0.429472983188205   0.581371297670898   1.0
O171   O   0.159972966437586   0.283427964803728   0.586772844152506   1.0
O172   O   0.839915784653911   0.192780538905559   0.413171545759610   1.0
O173   O   0.607894100388194   0.070946675249402   0.953359297127214   1.0
O174   O   0.575331800367962   0.094973456684990   0.128111926114826   1.0
O175   O   0.883928545646711   0.305416409147483   0.038376390143441   1.0
O176   O   0.116179763372209   0.170682621910387   0.961562591435758   1.0
O177   O   0.424613969821671   0.381288971872316   0.871890357649065   1.0
O178   O   0.927941382989097   0.337413507496507   0.874512136173962   1.0
O179   O   0.056412574588073   0.171466083013243   0.292966744411046   1.0
O180   O   0.392015646083699   0.405261731693983   0.046646319944344   1.0
O181   O   0.943579530157550   0.304723102536059   0.706961910665328   1.0
O182   O   0.017885024005388   0.077520364409359   0.713840145564362   1.0
O183   O   0.546861131518916   0.065715119592007   0.301395078044571   1.0
O184   O   0.672650096322030   0.163534843988543   0.556290917896881   1.0
O185   O   0.327168752912975   0.312848573056414   0.443803687409407   1.0
O186   O   0.827256728796684   0.395199768266956   0.438345603931467   1.0
O187   O   0.172667399031276   0.081032638241467   0.561659487552056   1.0
O188   O   0.528643846635063   0.170089710530121   0.714744307154248   1.0
O189   O   0.471317114608901   0.306187464567245   0.285408939171930   1.0
O190   O   0.982048389277416   0.398762206647611   0.286170322780016   1.0
O191   O   0.334693914447186   0.202504461351168   0.846600247409441   1.0
O192   O   0.665235688419337   0.273764578896348   0.153421937601380   1.0
O193   O   0.176794978944677   0.437400899608157   0.163055852133809   1.0
O194   O   0.822959187573872   0.038853642208309   0.836919153363446   1.0
O195   O   0.453231054801648   0.410563267079674   0.698670931846749   1.0
O196   O   0.072119497196560   0.138715227120372   0.125430883684842   1.0


# Number_of_total_atoms: 196
# Number_of_atom_type: 3
# Name_of_each_atom: C H O
# Number_of_each_atom: 56 112 28
# Created_by: Lihua Chen (lihua.chen@mse.gatech.edu)
# Tool: VASP
# K-points: 4 1 1
# Pseudopotential: PBE-HSE06
# Material_class: MC_Pol
# Geometry_class: GC_PD
# Bandgap_(eV): 5.23
