#======================================================================

# Note: Ordered slab of polyproplyene oxide
# Common_name: Ordered slab-100

#----------------------------------------------------------------------

data_1
_audit_creation_method   'vasp2cif'
_cell_length_a    37.4359016418
_cell_length_b    5.4590001106
_cell_length_c    5.4758000374
_cell_angle_alpha    90.0
_cell_angle_beta    90.0
_cell_angle_gamma    90.0

_symmetry_space_group_name_H-M    'P 1'
loop_
_atom_site_label
_atom_site_type_symbol
_atom_site_fract_x
_atom_site_fract_y
_atom_site_fract_z
_atom_site_occupancy
C1   C   0.134010416079676   0.675250804844055   0.519907261365212   1.0
C2   C   0.428394080905285   0.670731541906697   0.520025633030642   1.0
C3   C   0.170918977513381   0.170706783011973   0.979976286390844   1.0
C4   C   0.465293245518474   0.175276208329230   0.980188751759044   1.0
C5   C   0.023563649470255   0.332402883695110   0.020418953756639   1.0
C6   C   0.318038286246306   0.329264873485336   0.019789067337207   1.0
C7   C   0.238189524637079   0.624799828244974   0.767054384273820   1.0
C8   C   0.535095498162661   0.614381862529733   0.771901245712527   1.0
C9   C   0.213913758764321   0.375745191479325   0.267326143951188   1.0
C10   C   0.508947878905374   0.375605694241081   0.266550720590892   1.0
C11   C   0.064215729878200   0.114432595369216   0.728165174333625   1.0
C12   C   0.361119565009886   0.124825792724124   0.732761377510585   1.0
C13   C   0.281296477950058   0.829199871623715   0.480221821285248   1.0
C14   C   0.575758899586496   0.832288840545623   0.479652333261704   1.0
C15   C   0.090353365712566   0.875550528677778   0.233495167232945   1.0
C16   C   0.385418333966058   0.875759693393185   0.232562585085930   1.0
C17   C   0.195726532091271   0.390304137891348   0.018454437487293   1.0
C18   C   0.490740360176325   0.391736607742367   0.017358980748604   1.0
C19   C   0.047420288840875   0.107436391738354   0.982319223622149   1.0
C20   C   0.342893398980067   0.109939932291034   0.981481347868069   1.0
C21   C   0.108558843277464   0.891687976422169   0.482698890924837   1.0
C22   C   0.403595244386779   0.890337673020653   0.481471365628728   1.0
C23   C   0.256437485504648   0.609874702830346   0.518416149383967   1.0
C24   C   0.551889674033028   0.607378210400590   0.517734619328628   1.0
H25   H   0.184414411000709   0.999691220727222   0.029782679654616   1.0
H26   H   0.478351075072958   0.002464530806108   0.029474560036327   1.0
H27   H   0.267899019756264   0.000333926472159   0.530828828714554   1.0
H28   H   0.560776038407198   0.000184437723178   0.517174887491876   1.0
H29   H   0.038554072716558   0.500257029292584   0.982851823772151   1.0
H30   H   0.331438234401688   0.500411477945093   0.969211643874814   1.0
H31   H   0.120961194424453   0.502407953347934   0.470614482418377   1.0
H32   H   0.414895388500604   0.499727345719663   0.470279561222263   1.0
H33   H   0.289331113730178   0.840678588695376   0.288598668747440   1.0
H34   H   0.585516036686478   0.838585633110128   0.291494732967486   1.0
H35   H   0.257567058180378   0.672607465270730   0.909558020487651   1.0
H36   H   0.555825805759021   0.644113555892609   0.910692216053313   1.0
H37   H   0.013813648270450   0.338743527536174   0.208589553292519   1.0
H38   H   0.310012323252039   0.340681700529174   0.211439993861440   1.0
H39   H   0.271804102056947   0.438375628279559   0.507806668813593   1.0
H40   H   0.567710372032259   0.438566248302763   0.497914089177179   1.0
H41   H   0.142295234948918   0.665194379307771   0.711134247930431   1.0
H42   H   0.436487513470631   0.659846580258822   0.711587139533776   1.0
H43   H   0.305389300466111   0.808658085002932   0.591511106180825   1.0
H44   H   0.598735418113399   0.826124598291493   0.603259380562378   1.0
H45   H   0.146844092625031   0.190340605028510   0.091643208819392   1.0
H46   H   0.441382519671009   0.198028570670758   0.092940432024058   1.0
H47   H   0.162823745022464   0.159754441831943   0.788414564753964   1.0
H48   H   0.457006761285534   0.165201875455409   0.788969464433180   1.0
H49   H   0.180331207587287   0.561662337421538   0.007518301528222   1.0
H50   H   0.475844994835285   0.565201931662784   0.005652025986095   1.0
H51   H   0.157922726731158   0.698037005651081   0.407166900423135   1.0
H52   H   0.452469974664751   0.690296059115632   0.408364407466621   1.0
H53   H   0.123454331714449   0.065152274100456   0.494397708561379   1.0
H54   H   0.418991717416610   0.061685261207799   0.492392379487946   1.0
H55   H   0.217742523103127   0.769237892310237   0.761324722538745   1.0
H56   H   0.516212693959979   0.768431332891893   0.780977149136277   1.0
H57   H   0.234283822513682   0.230728559637619   0.262331410739698   1.0
H58   H   0.529710140353465   0.233640963886415   0.258209971592009   1.0
H59   H   0.083114059777095   0.268392888399298   0.719156540578361   1.0
H60   H   0.381555717561902   0.269344861304198   0.738358446423312   1.0
H61   H   0.069588145243095   0.733608960602382   0.241842176044969   1.0
H62   H   0.365039984151970   0.730803535202440   0.237515729357185   1.0
H63   H   0.000583464408315   0.326283614133935   0.896856397398636   1.0
H64   H   0.293941561416936   0.308771607771256   0.908528749584050   1.0
H65   H   0.194472755206498   0.328981492508639   0.409795380401825   1.0
H66   H   0.489655088450462   0.323160686280921   0.407860330788566   1.0
H67   H   0.043490536404448   0.144311780172785   0.589376814794292   1.0
H68   H   0.341726787496192   0.172504970798769   0.590317507197632   1.0
H69   H   0.109645803766014   0.823091661852857   0.092182445968127   1.0
H70   H   0.404864598828730   0.828925193631797   0.090150891983157   1.0
H71   H   0.031590803971042   0.938660104996337   0.002116768499121   1.0
H72   H   0.327525699742047   0.938446025474754   0.992165008786948   1.0
O73   O   0.221766305607851   0.389310582580791   0.819787651429330   1.0
O74   O   0.516546273009197   0.385410701785616   0.817234553549596   1.0
O75   O   0.230462626202112   0.610949696524600   0.319384421330220   1.0
O76   O   0.524855610654157   0.611672894415896   0.325416461795292   1.0
O77   O   0.082743681936961   0.885393869046339   0.682770665888647   1.0
O78   O   0.377552749753100   0.889370419863354   0.680106098549615   1.0
O79   O   0.074453670672412   0.111652784296837   0.174642846198274   1.0
O80   O   0.368885745565585   0.110999324267866   0.180415219487109   1.0


# Number_of_total_atoms: 80
# Number_of_atom_type: 3
# Name_of_each_atom: C H O
# Number_of_each_atom: 24 48 8
# Created_by: Lihua Chen (lihua.chen@mse.gatech.edu)
# Tool: VASP
# K-points: 1 5 5
# Pseudopotential: PBE-HSE06
# Material_class: MC_Pol
# Geometry_class: GC_PD
# Bandgap_(eV): 4.91
