#======================================================================

# Note: Ordered slab of isotactic polyvinyl alcohol
# Common_name: Ordered slab-001

#----------------------------------------------------------------------

data_1
_audit_creation_method   'vasp2cif'
_cell_length_a    7.6711997986
_cell_length_b    2.5724999905
_cell_length_c    24.5963001251
_cell_angle_alpha    90.0
_cell_angle_beta    90.0
_cell_angle_gamma    90.0

_symmetry_space_group_name_H-M    'P 1'
loop_
_atom_site_label
_atom_site_type_symbol
_atom_site_fract_x
_atom_site_fract_y
_atom_site_fract_z
_atom_site_occupancy
C1   C   0.120838015035957   0.265491580528241   0.147953120452726   1.0
C2   C   0.150578745738656   0.266440856855482   0.353107173732255   1.0
C3   C   0.787199491174299   0.766253814179329   0.037048482915019   1.0
C4   C   0.817085395658935   0.765376383186471   0.242175282119106   1.0
C5   C   0.210265090993410   0.764911344529942   0.127875779545690   1.0
C6   C   0.243388414474325   0.762051603825093   0.334505870599230   1.0
C7   C   0.694448133881991   0.261921610390282   0.055644245321560   1.0
C8   C   0.727589610515153   0.264848506848843   0.262256226102025   1.0
H9   H   0.798856592262013   0.768599024291021   0.992490792399906   1.0
H10   H   0.816570328333533   0.767695587285544   0.197572099873497   1.0
H11   H   0.920076392430964   0.773676414903051   0.053875016471160   1.0
H12   H   0.953314697826777   0.764097241001259   0.255280502143847   1.0
H13   H   0.466759968960702   0.589790091469588   0.035660615092141   1.0
H14   H   0.503946598494664   0.595144453902854   0.237734793864369   1.0
H15   H   0.689439038741860   0.272819133093748   0.100576174365472   1.0
H16   H   0.726162409796501   0.268615536338942   0.307166308190013   1.0
H17   H   0.211721194380850   0.768761323997218   0.082986675515222   1.0
H18   H   0.248469764100037   0.772823622212030   0.289576501291450   1.0
H19   H   0.433886985723234   0.095262247841134   0.152461636317554   1.0
H20   H   0.471005162983353   0.089894684824671   0.354510742555604   1.0
H21   H   0.121151407871331   0.267792485824145   0.192562773054604   1.0
H22   H   0.138970311275919   0.268785536426329   0.397663684573239   1.0
H23   H   0.984525043202197   0.264177151014323   0.134825420156751   1.0
H24   H   0.017709744368865   0.273821293436278   0.336286844936836   1.0
O25   O   0.389282537473811   0.738571710804720   0.147725397612533   1.0
O26   O   0.421305138718317   0.736035510585303   0.355423708043880   1.0
O27   O   0.516420061420114   0.235942356733325   0.034767849374361   1.0
O28   O   0.548603615925678   0.238498751337268   0.242416397774704   1.0


# Number_of_total_atoms: 28
# Number_of_atom_type: 3
# Name_of_each_atom: C H O
# Number_of_each_atom: 8 16 4
# Created_by: Lihua Chen (lihua.chen@mse.gatech.edu)
# Tool: VASP
# K-points: 4 12 1
# Pseudopotential: PBE-HSE06
# Material_class: MC_Pol
# Geometry_class: GC_PD
# Bandgap_(eV): 6.43
