#======================================================================

# Note: Ordered slab of polyketone
# Common_name: Ordered slab-010

#----------------------------------------------------------------------

data_1
_audit_creation_method   'vasp2cif'
_cell_length_a    7.2279000282
_cell_length_b    24.5970001221
_cell_length_c    7.6092000008
_cell_angle_alpha    90.0
_cell_angle_beta    90.0
_cell_angle_gamma    90.0

_symmetry_space_group_name_H-M    'P 1'
loop_
_atom_site_label
_atom_site_type_symbol
_atom_site_fract_x
_atom_site_fract_y
_atom_site_fract_z
_atom_site_occupancy
C1   C   0.483698882740931   0.054882881421129   0.249999999973717   1.0
C2   C   0.478282311083667   0.258760381491214   0.249999999973717   1.0
C3   C   0.553748671764936   0.035777720468076   0.750000015691533   1.0
C4   C   0.506974042106613   0.229149836784245   0.750000015691533   1.0
C5   C   0.007031110671051   0.161000944243000   0.750000015691533   1.0
C6   C   0.053566947981047   0.354440055763220   0.750000015691533   1.0
C7   C   0.978319744285194   0.131400235817402   0.249999999973717   1.0
C8   C   0.983613856898280   0.335273413208363   0.249999999973717   1.0
C9   C   0.459917823415822   0.054186293357787   0.581933745629691   1.0
C10   C   0.461776841226737   0.258979011597447   0.581653624838935   1.0
C11   C   0.531638812032114   0.025412449105296   0.418317823485580   1.0
C12   C   0.537650244703549   0.231034694454024   0.418263804329243   1.0
C13   C   0.037623029150481   0.159143433837634   0.418249201671017   1.0
C14   C   0.031506842295272   0.364755307175642   0.418322025669219   1.0
C15   C   0.961841175718845   0.131178657671640   0.581647911865673   1.0
C16   C   0.959873924099085   0.335970623819364   0.581941819679287   1.0
C17   C   0.531638812032114   0.025412449105296   0.081682184347045   1.0
C18   C   0.537650244703549   0.231034694454024   0.081736203503382   1.0
C19   C   0.459917823415822   0.054186293357787   0.918066285621954   1.0
C20   C   0.461776841226737   0.258979011597447   0.918346406412709   1.0
C21   C   0.961841175718845   0.131178657671640   0.918352119385972   1.0
C22   C   0.959873924099085   0.335970623819364   0.918058211572358   1.0
C23   C   0.037623029150481   0.159143433837634   0.081750806161608   1.0
C24   C   0.031506842295272   0.364755307175642   0.081677982163406   1.0
H25   H   0.189470792489729   0.159843877555545   0.080330296675626   1.0
H26   H   0.182811111273352   0.368031705352614   0.077158494040113   1.0
H27   H   0.480222994533086   0.983471864608546   0.410994427911540   1.0
H28   H   0.494654057921309   0.188278895254790   0.412059523699781   1.0
H29   H   0.484263843778081   0.098250293061440   0.572428200666906   1.0
H30   H   0.509733934947107   0.301205954557702   0.591082308251060   1.0
H31   H   0.189470792489729   0.159843877555545   0.419669703403237   1.0
H32   H   0.182811111273352   0.368031705352614   0.422841506038743   1.0
H33   H   0.009875392526972   0.088957698503144   0.591049557926794   1.0
H34   H   0.984410534054632   0.291912892119633   0.572498262345114   1.0
H35   H   0.480222994533086   0.983471864608546   0.089005564150703   1.0
H36   H   0.494654057921309   0.188278895254790   0.087940468362461   1.0
H37   H   0.484263843778081   0.098250293061440   0.927571830716154   1.0
H38   H   0.509733934947107   0.301205954557702   0.908917723131999   1.0
H39   H   0.009875392526972   0.088957698503144   0.908950473456265   1.0
H40   H   0.984410534054632   0.291912892119633   0.927501769037946   1.0
H41   H   0.994506059349042   0.201888792026850   0.087938335997165   1.0
H42   H   0.979981013751782   0.406686162571702   0.089008938403616   1.0
H43   H   0.309525967940381   0.049661965127513   0.595007736316767   1.0
H44   H   0.310248321583060   0.261809500392630   0.575305510528814   1.0
H45   H   0.682952565701498   0.022175977115197   0.422856878971878   1.0
H46   H   0.689508514873353   0.230371022792689   0.419691493184132   1.0
H47   H   0.994506059349042   0.201888792026850   0.412061656065084   1.0
H48   H   0.979981013751782   0.406686162571702   0.410991053658627   1.0
H49   H   0.810321184263913   0.128324818168871   0.575351777680225   1.0
H50   H   0.809457115925113   0.340439311158924   0.594971193360266   1.0
H51   H   0.682952565701498   0.022175977115197   0.077143121106978   1.0
H52   H   0.689508514873353   0.230371022792689   0.080308506894724   1.0
H53   H   0.309525967940381   0.049661965127513   0.904992294934878   1.0
H54   H   0.310248321583060   0.261809500392630   0.924694520722831   1.0
H55   H   0.810321184263913   0.128324818168871   0.924648253571419   1.0
H56   H   0.809457115925113   0.340439311158924   0.905028837891379   1.0
O57   O   0.071800057849629   0.207615546054164   0.750000015691533   1.0
O58   O   0.200474809375741   0.379918404045838   0.750000015691533   1.0
O59   O   0.700861238118392   0.010400715337632   0.750000015691533   1.0
O60   O   0.571738001753864   0.182541639498773   0.750000015691533   1.0
O61   O   0.886482225743997   0.089020747502836   0.249999999973717   1.0
O62   O   0.914774920948787   0.289200909269262   0.249999999973717   1.0
O63   O   0.414797032496026   0.100954508352103   0.249999999973717   1.0
O64   O   0.386292257054265   0.301109636809713   0.249999999973717   1.0


# Number_of_total_atoms: 64
# Number_of_atom_type: 3
# Name_of_each_atom: C H O
# Number_of_each_atom: 24 32 8
# Created_by: Lihua Chen (lihua.chen@mse.gatech.edu)
# Tool: VASP
# K-points: 4 1 4
# Pseudopotential: PBE-HSE06
# Material_class: MC_Pol
# Geometry_class: GC_PD
# Bandgap_(eV): 5.54
