#======================================================================

# Note: Ordered slab of polycaprolactone 
# Common_name: Ordered slab-010

#----------------------------------------------------------------------

data_1
_audit_creation_method   'vasp2cif'
_cell_length_a    6.6559000015
_cell_length_b    25.1252994537
_cell_length_c    17.1014995575
_cell_angle_alpha    90.0
_cell_angle_beta    90.0027999878
_cell_angle_gamma    90.0

_symmetry_space_group_name_H-M    'P 1'
loop_
_atom_site_label
_atom_site_type_symbol
_atom_site_fract_x
_atom_site_fract_y
_atom_site_fract_z
_atom_site_occupancy
C1   C   0.078548828331108   0.158730761033425   0.034901431160307   1.0
C2   C   0.491679040048545   0.077140511513676   0.251601451496121   1.0
C3   C   0.497439886601796   0.292424203043716   0.250156262313176   1.0
C4   C   0.476638452709025   0.070236553584714   0.392719989420883   1.0
C5   C   0.452319351884057   0.279447523188061   0.389149880401668   1.0
C6   C   0.419537908838805   0.050437230861981   0.537691556182445   1.0
C7   C   0.421773538733248   0.263674548800807   0.535845425885910   1.0
C8   C   0.402098714346202   0.032165331268750   0.685286676524058   1.0
C9   C   0.424185983298123   0.249996169128472   0.683440909423922   1.0
C10   C   0.488772215374155   0.049558528338991   0.958183648557352   1.0
C11   C   0.474861747135179   0.260140136612335   0.960029221746304   1.0
C12   C   0.580701918303063   0.031417046945364   0.035991037820786   1.0
C13   C   0.578520282354511   0.244144976021722   0.036403949384649   1.0
C14   C   0.570927889126153   0.043256802143347   0.184577542460794   1.0
C15   C   0.586575406409480   0.259812432080103   0.183905128191554   1.0
C16   C   0.525921019913881   0.034572648103946   0.461565030681328   1.0
C17   C   0.520241439588155   0.247028847479129   0.458745460007456   1.0
C18   C   0.480914581088662   0.013496967427805   0.605238956798750   1.0
C19   C   0.501724832330481   0.230245471552969   0.604138481337770   1.0
C20   C   0.506535747356800   0.001497023216786   0.750475026249561   1.0
C21   C   0.510321035567472   0.217319296533383   0.750133627952607   1.0
C22   C   0.573686476517231   0.021021170028675   0.887345476156760   1.0
C23   C   0.506495408619230   0.278924402906796   0.104568322041757   1.0
C24   C   0.490749330719986   0.062384251331252   0.105162903088328   1.0
C25   C   0.530532016793792   0.225547763280666   0.890849239132997   1.0
C26   C   0.005772855028525   0.124036315893434   0.966753084353613   1.0
C27   C   0.081090300625163   0.371520122530342   0.035260158876504   1.0
C28   C   0.031518898208610   0.177282810772837   0.180490741550003   1.0
C29   C   0.074753098108310   0.382003553689437   0.183904189560941   1.0
C30   C   0.011492740279252   0.185606473179455   0.321193090936475   1.0
C31   C   0.007984358356772   0.401531390232591   0.320797278966552   1.0
C32   C   0.002207143745878   0.172755131771666   0.467207733724287   1.0
C33   C   0.990507536714659   0.340597912757524   0.966172582309063   1.0
C34   C   0.019527345149143   0.156073295605807   0.612630796752683   1.0
C35   C   0.025921576709408   0.368468904505981   0.609787881203872   1.0
C36   C   0.085689603204848   0.143122904097496   0.887390173532104   1.0
C37   C   0.981998441845299   0.389502179843177   0.466056496631452   1.0
C38   C   0.975264889862821   0.142767970235830   0.111340652659827   1.0
C39   C   0.070526088968414   0.359701958451460   0.886729075008660   1.0
C40   C   0.996345539097142   0.110535988496345   0.821158649092801   1.0
C41   C   0.975919983835745   0.332843590836326   0.678607598708702   1.0
C42   C   0.951113854430965   0.123678577257372   0.682173528460083   1.0
C43   C   0.990713697448449   0.325914308024892   0.819712420558702   1.0
C44   C   0.921419808937088   0.139436633919772   0.535464788444159   1.0
C45   C   0.903466110492054   0.370854891842406   0.385955131973525   1.0
C46   C   0.924935156226390   0.153003678906579   0.387876894127381   1.0
C47   C   0.989605002521330   0.353412754574350   0.113151826758155   1.0
C48   C   0.920059800903282   0.352595234739319   0.533553773285881   1.0
H49   H   0.328256089648363   0.082438147783371   0.248840491331052   1.0
H50   H   0.342204582896905   0.277795110940019   0.106317356888638   1.0
H51   H   0.326216320948397   0.058087138201252   0.104569732229116   1.0
H52   H   0.506458838166203   0.301781646519160   0.944973610455989   1.0
H53   H   0.514855901304969   0.092330875860867   0.949090816754904   1.0
H54   H   0.470222991765283   0.291617389842443   0.691341701249804   1.0
H55   H   0.436324122678663   0.074519400107519   0.692920864936923   1.0
H56   H   0.453233043972169   0.305940285421144   0.546858621852856   1.0
H57   H   0.459185128847281   0.091588504260407   0.552431006482273   1.0
H58   H   0.937765536889579   0.328504252198819   0.378319044000811   1.0
H59   H   0.563123504679581   0.116349046818968   0.254355313862092   1.0
H60   H   0.549163336443122   0.320628197669862   0.094522464185140   1.0
H61   H   0.521142572229643   0.105130807638361   0.097712041530194   1.0
H62   H   0.020595519273613   0.297831869774178   0.973582271064565   1.0
H63   H   0.048097595586817   0.082301606422710   0.976726787817086   1.0
H64   H   0.061561835624275   0.286627114379598   0.816952444785287   1.0
H65   H   0.052898892403270   0.069667137408700   0.819684980246350   1.0
H66   H   0.959726113725580   0.311432195125555   0.518894719643050   1.0
H67   H   0.952624314701907   0.097145011432723   0.524562540630470   1.0
H68   H   0.333628593761304   0.292958541713524   0.247618539178333   1.0
H69   H   0.554385740842186   0.333252159768051   0.251715739783982   1.0
H70   H   0.255977524189141   0.049497905560287   0.529092080913387   1.0
H71   H   0.428415957695108   0.972768619640291   0.593105254257921   1.0
H72   H   0.238485336859021   0.027270762587556   0.689117902395054   1.0
H73   H   0.970778939047783   0.111358976282901   0.380037880347388   1.0
H74   H   0.666025874731602   0.232235268359844   0.604468946470128   1.0
H75   H   0.645617783066079   0.012066430093874   0.607663906435569   1.0
H76   H   0.683997719230071   0.250836655665402   0.462883175558247   1.0
H77   H   0.689754699723885   0.035949749079109   0.469739427942088   1.0
H78   H   0.751016543787991   0.261963960871057   0.185832656583749   1.0
H79   H   0.735793218421399   0.043971737779593   0.185209429590202   1.0
H80   H   0.742145626975280   0.246876413448739   0.029622389845286   1.0
H81   H   0.744090623796382   0.036602098318262   0.034370693744251   1.0
H82   H   0.444271076576413   0.177518082432279   0.754076236610231   1.0
H83   H   0.464673221225667   0.959287962291292   0.751285838542557   1.0
H84   H   0.461353779967858   0.188220430850450   0.595396994658621   1.0
H85   H   0.490540160157522   0.204945397968089   0.445774568074981   1.0
H86   H   0.490900390887049   0.993386726883699   0.445224712055492   1.0
H87   H   0.543289771890599   0.218013018280764   0.192433536523026   1.0
H88   H   0.524992284615109   0.001812347052770   0.194030746636265   1.0
H89   H   0.544764085566214   0.202248628500328   0.048914711362208   1.0
H90   H   0.553736576547180   0.988644253184965   0.044009565554219   1.0
H91   H   0.311059525910999   0.257525167208200   0.966944150482007   1.0
H92   H   0.325684840451636   0.043914751823088   0.958466120531803   1.0
H93   H   0.259724393761324   0.248596744363070   0.685611117838192   1.0
H94   H   0.258111291668058   0.259999982095614   0.531354000178979   1.0
H95   H   0.015719465565333   0.310639803634075   0.122283664380085   1.0
H96   H   0.189821728662828   0.367050848693616   0.601830804869863   1.0
H97   H   0.826019117840673   0.344996365334190   0.966880678235405   1.0
H98   H   0.242215741030336   0.155904570306618   0.041490843723899   1.0
H99   H   0.244464146457915   0.366272986824455   0.036717474952454   1.0
H100   H   0.175251248889992   0.188594350244642   0.324608146812295   1.0
H101   H   0.170714518542567   0.397938593684707   0.325197333597586   1.0
H102   H   0.166503027864863   0.170642780624604   0.467052565284845   1.0
H103   H   0.146712281178964   0.390872354262484   0.463766316626320   1.0
H104   H   0.006604858796507   0.101104229743548   0.126328050327821   1.0
H105   H   0.669251851520130   0.005125378468179   0.746068740414913   1.0
H106   H   0.250097432656794   0.140911192659637   0.885419194152213   1.0
H107   H   0.235379026689834   0.358876255328447   0.886000671549333   1.0
H108   H   0.045080475358830   0.200655263088784   0.022451450669223   1.0
H109   H   0.054300382786323   0.414305171413297   0.027269981991914   1.0
H110   H   0.945684774149441   0.225435491926042   0.317177637769035   1.0
H111   H   0.965940054993631   0.443731924623073   0.319944563252115   1.0
H112   H   0.183287032766998   0.152222558016263   0.608633275024530   1.0
H113   H   0.929619476638727   0.430246184067237   0.478139263775354   1.0
H114   H   0.962223734528024   0.214821778407597   0.475840111833087   1.0
H115   H   0.841494388312370   0.125268359521876   0.965143918619617   1.0
H116   H   0.827219619281088   0.320795343208239   0.822470307032326   1.0
H117   H   0.832540600150850   0.110088928449677   0.823673040926941   1.0
H118   H   0.756459838872836   0.353546483081374   0.541992007433961   1.0
H119   H   0.757749178694290   0.143208083501364   0.539758076819844   1.0
H120   H   0.739855064661384   0.375735738405396   0.382026477374119   1.0
H121   H   0.674062291393945   0.214262548032195   0.746755106446130   1.0
H122   H   0.826513666712451   0.359046172041914   0.112980926451122   1.0
H123   H   0.811459996433832   0.145482769458113   0.104575417162714   1.0
H124   H   0.024968282994664   0.401186993462851   0.877347594354518   1.0
H125   H   0.042578897268420   0.184939790195671   0.878875775755752   1.0
H126   H   0.990893393897466   0.409673124115614   0.626058537632581   1.0
H127   H   0.989881247613596   0.198170108937113   0.625579327989172   1.0
H128   H   0.760494181291449   0.154472465812717   0.385573112050707   1.0
O129   O   0.056543731307286   0.137332328264321   0.747394386489162   1.0
O130   O   0.037892812462431   0.355311260168215   0.747016402713669   1.0
O131   O   0.961722894438871   0.156086803779232   0.248278358442377   1.0
O132   O   0.943403480558622   0.378307724720017   0.245284383775399   1.0
O133   O   0.442033772565765   0.024690278444048   0.826029257930010   1.0
O134   O   0.460664384920385   0.246815601300568   0.823092310785015   1.0
O135   O   0.538364629396824   0.047707630226313   0.324323616049384   1.0
O136   O   0.624078615433298   0.183468406598756   0.894415156356537   1.0
O137   O   0.737057173186209   0.998660453811254   0.884346532963384   1.0
O138   O   0.393722372792475   0.113838060066008   0.396326873934171   1.0
O139   O   0.320283762015997   0.313570574503878   0.390113997064702   1.0
O140   O   0.125584758087079   0.219347061810531   0.176896100017366   1.0
O141   O   0.238047842268863   0.404429035204366   0.186801526730754   1.0
O142   O   0.892308449507006   0.289353397706101   0.674985873752810   1.0
O143   O   0.557306398879092   0.265569375093875   0.323920657067028   1.0
O144   O   0.818325044398712   0.089751307951182   0.681151995411469   1.0


# Number_of_total_atoms: 144
# Number_of_atom_type: 3
# Name_of_each_atom: C H O
# Number_of_each_atom: 48 80 16
# Created_by: Lihua Chen (lihua.chen@mse.gatech.edu)
# Tool: VASP
# K-points: 4 1 1
# Pseudopotential: PBE-HSE06
# Material_class: MC_Pol
# Geometry_class: GC_PCL
# Bandgap_(eV): 6.20
