#======================================================================

# Note: Ordered slab of isotactic polymethyl methacrylate
# Common_name: Ordered slab-010

#----------------------------------------------------------------------

data_1
_audit_creation_method   'vasp2cif'
_cell_length_a    19.0375003815
_cell_length_b    30.551399231
_cell_length_c    10.5754995346
_cell_angle_alpha    90.0
_cell_angle_beta    90.0151977542
_cell_angle_gamma    90.0

_symmetry_space_group_name_H-M    'P 1'
loop_
_atom_site_label
_atom_site_type_symbol
_atom_site_fract_x
_atom_site_fract_y
_atom_site_fract_z
_atom_site_occupancy
C1   C   0.150571516009066   0.371195597300314   0.112454785137473   1.0
C2   C   0.139555712064009   0.476305799227354   0.975478621449227   1.0
C3   C   0.249762462141320   0.143222671818279   0.256766070574763   1.0
C4   C   0.741163644648481   0.156446230933440   0.237985999542978   1.0
C5   C   0.746366542547555   0.379475061190298   0.750650752026118   1.0
C6   C   0.242254185200601   0.357364556463608   0.723313714700474   1.0
C7   C   0.302612857245180   0.186316160206815   0.696168843333652   1.0
C8   C   0.702978563956322   0.113679850576673   0.689149319498206   1.0
C9   C   0.802407685811282   0.338151451221563   0.185026582846326   1.0
C10   C   0.206908588591460   0.401473927763639   0.171755697794389   1.0
C11   C   0.306342770292766   0.049839605899130   0.448531062553812   1.0
C12   C   0.666842051756234   0.241381305048421   0.408951774524873   1.0
C13   C   0.812855531811230   0.473515872623992   0.932653522779667   1.0
C14   C   0.165004724971162   0.272137058379933   0.900560916136101   1.0
C15   C   0.617693236899420   0.250206106517979   0.738721196513964   1.0
C16   C   0.373170644034161   0.046985612468042   0.758860452918746   1.0
C17   C   0.114983938005253   0.267677218930800   0.230117925755124   1.0
C18   C   0.879977391611568   0.476091526273038   0.244405448949898   1.0
C19   C   0.599724141441413   0.167028013178182   0.731243272000128   1.0
C20   C   0.399870059167384   0.129305318381725   0.736756374257489   1.0
C21   C   0.100159556866458   0.350918713761686   0.216252381325568   1.0
C22   C   0.902345354152658   0.393312371611224   0.223622469976561   1.0
C23   C   0.876494497909349   0.267918086542444   0.987275165934172   1.0
C24   C   0.631932078112072   0.040022238347710   0.490495603709235   1.0
C25   C   0.378621162169068   0.254460192600632   0.497009673586760   1.0
C26   C   0.217887519679607   0.454562827249326   0.535468806986529   1.0
C27   C   0.300480385281986   0.099924126295583   0.883615194903300   1.0
C28   C   0.197549784157523   0.315337914723365   0.354194634375453   1.0
C29   C   0.804449466431777   0.424987943146029   0.370050101603560   1.0
C30   C   0.542576293226077   0.305365055552464   0.651842665010037   1.0
C31   C   0.439859536872490   0.992768240339096   0.646679369161205   1.0
C32   C   0.038531204081359   0.213714287602229   0.140541252300217   1.0
C33   C   0.949673500338051   0.528634965706864   0.131476499824302   1.0
C34   C   0.625653389185494   0.263996777668176   0.076155189236758   1.0
C35   C   0.378529609072395   0.034097808419020   0.085251034419961   1.0
C36   C   0.119104441172084   0.254167617912266   0.562791348506650   1.0
C37   C   0.623129403515385   0.207503652925581   0.815778860079448   1.0
C38   C   0.885921551324671   0.488609330031359   0.572584035742892   1.0
C39   C   0.594342856935775   0.997307220314781   0.852883758542667   1.0
C40   C   0.893428588926433   0.220288797707667   0.362546440032915   1.0
C41   C   0.103200427772045   0.521491012359682   0.339493581494899   1.0
C42   C   0.493468036342563   0.285776622852289   0.286645125380815   1.0
C43   C   0.505899598074969   0.009865206257487   0.288028395312835   1.0
C44   C   0.985232510569851   0.235005333858538   0.771900002332060   1.0
C45   C   0.015098566090430   0.509678158375856   0.774918113052514   1.0
C46   C   0.301098860086611   0.223117512451829   0.037454872183403   1.0
C47   C   0.711522405215995   0.061181854180013   0.049597641720318   1.0
C48   C   0.796747698283788   0.303674587428887   0.526157588525649   1.0
C49   C   0.402168368614298   0.304300338401497   0.877347334036351   1.0
C50   C   0.374503272028278   0.091433945995909   0.828047352464431   1.0
C51   C   0.699779754095523   0.202781477094113   0.863545665355005   1.0
C52   C   0.878892281146335   0.431799020983995   0.314368899602947   1.0
C53   C   0.812954304363927   0.327016704304256   0.869620075415547   1.0
C54   C   0.190343510090877   0.414558935797487   0.847855255104633   1.0
C55   C   0.450338011903796   0.206785081970772   0.340755800148997   1.0
C56   C   0.554204856918375   0.086660321632138   0.339657366204591   1.0
C57   C   0.947225068880130   0.314862774806492   0.827598153468777   1.0
C58   C   0.059397896231729   0.431687425090963   0.824036945684000   1.0
C59   C   0.386541375997439   0.208488239501143   0.436713373272546   1.0
C60   C   0.618771167408397   0.085965760838839   0.433345215320820   1.0
C61   C   0.121328576671878   0.310934568591200   0.304205548802159   1.0
C62   C   0.123982077618926   0.430762119303090   0.917611140586054   1.0
C63   C   0.306081440599961   0.117397895720160   0.565627395318536   1.0
C64   C   0.686786359235903   0.179364017175821   0.548074767743678   1.0
C65   C   0.809127507394457   0.406704299616862   0.052908968839212   1.0
C66   C   0.186765962239164   0.335392598102636   0.034094091534676   1.0
C67   C   0.406726482154397   0.173263415977168   0.540652962388407   1.0
C68   C   0.595354323470865   0.119482011974192   0.540336594146460   1.0
C69   C   0.906702439034248   0.348825812384994   0.028592220826496   1.0
C70   C   0.098760036319426   0.397451625468037   0.023584541313397   1.0
C71   C   0.351449570075090   0.151848982230554   0.634013568711516   1.0
C72   C   0.648642099400789   0.144956278754307   0.628325896737145   1.0
C73   C   0.852722461862768   0.371494509841270   0.121676737909759   1.0
C74   C   0.686106243043803   0.100786238323096   0.363881594477221   1.0
C75   C   0.315595685077376   0.195481774327178   0.377592699136180   1.0
C76   C   0.884507800507130   0.313687681489697   0.925748829636554   1.0
C77   C   0.957782670062812   0.279209365507413   0.719724145234103   1.0
C78   C   0.048201868539436   0.467750809748637   0.718171169536980   1.0
C79   C   0.488542412611046   0.016551387721137   0.964337470314668   1.0
C80   C   0.004999253096720   0.239311706659173   0.455836934035886   1.0
C81   C   0.996516789716040   0.504272560383264   0.451071510620956   1.0
C82   C   0.568056148374602   0.206164396154328   0.927910958565477   1.0
C83   C   0.432718482866974   0.092367426745540   0.934971636735646   1.0
C84   C   0.065546254107325   0.313741314994580   0.415039750416369   1.0
C85   C   0.937023760980459   0.429674404683489   0.421087282660210   1.0
C86   C   0.555800319632958   0.244172520105771   0.027576931827603   1.0
C87   C   0.447122259259025   0.053517444532950   0.029993107986009   1.0
C88   C   0.050747636896865   0.275938488853925   0.514251759022251   1.0
C89   C   0.512759507852799   0.282155834264650   0.969703127445996   1.0
C90   C   0.392280174954067   0.252330923148690   0.169158265645606   1.0
C91   C   0.610369044179798   0.037362345485342   0.167286080732062   1.0
C92   C   0.886727857531028   0.271526381755642   0.654662028664376   1.0
C93   C   0.117832244070392   0.480349451487534   0.652832854090512   1.0
C94   C   0.514856604859119   0.219373868829052   0.138232446653305   1.0
C95   C   0.492172208770853   0.076564191911316   0.136875539962823   1.0
C96   C   0.011575552550440   0.301386359302391   0.625707396524056   1.0
C97   C   0.997503386602823   0.443799413432409   0.622459653006281   1.0
C98   C   0.462863625243415   0.242531491534550   0.233579581512174   1.0
C99   C   0.541312663039719   0.051256890229752   0.232474860754742   1.0
C100   C   0.953432793810649   0.468031585977293   0.516558456842311   1.0
H101   H   0.778678444679095   0.336893794132429   0.508458511091312   1.0
H102   H   0.230142251732801   0.425164911030407   0.481506459476407   1.0
H103   H   0.312674755385402   0.240411873977031   0.949845046849191   1.0
H104   H   0.584330614795746   0.028995603764052   0.538983982259055   1.0
H105   H   0.806063532312628   0.286832546221923   0.436883914151935   1.0
H106   H   0.212768466701093   0.482784516256011   0.473373459737594   1.0
H107   H   0.428889588081191   0.264034748536396   0.538426136794058   1.0
H108   H   0.725486693841802   0.090488034291674   0.996579846053457   1.0
H109   H   0.704704622434015   0.033354348194749   0.986573201026630   1.0
H110   H   0.281239515385330   0.190467207878079   0.017089968736386   1.0
H111   H   0.004571096537688   0.534138497734908   0.702149939425851   1.0
H112   H   0.759707630012244   0.285638197791904   0.584276236954771   1.0
H113   H   0.750874189559234   0.053547144630407   0.121317584090534   1.0
H114   H   0.264365589917475   0.241585058630527   0.094971506784098   1.0
H115   H   0.998535358287619   0.212510284179565   0.695377322900669   1.0
H116   H   0.494368640547741   0.985781661696237   0.214713935297873   1.0
H117   H   0.506462179510102   0.308548154157961   0.210576652472525   1.0
H118   H   0.049914916782306   0.524865298336110   0.843885523480651   1.0
H119   H   0.946036217667213   0.218602568597085   0.829718743361575   1.0
H120   H   0.539730840112306   0.993862831792406   0.357054523166418   1.0
H121   H   0.257591156617579   0.460963748272746   0.607564050664593   1.0
H122   H   0.927387156925583   0.257695405544091   0.024752192743954   1.0
H123   H   0.833727814402621   0.313490836617866   0.234840182400319   1.0
H124   H   0.339002966852519   0.254687634324164   0.571246639054102   1.0
H125   H   0.456244482635270   0.302496022112109   0.347891186617787   1.0
H126   H   0.675220076393579   0.088800935008287   0.744703416075005   1.0
H127   H   0.334873502286420   0.210744624368395   0.745024261240395   1.0
H128   H   0.257773985997226   0.379365105181478   0.647331437923413   1.0
H129   H   0.719791074614236   0.352308822347794   0.704223593860469   1.0
H130   H   0.758622280991680   0.132660930954884   0.168185874771837   1.0
H131   H   0.225107005741961   0.170267305002504   0.206544397470580   1.0
H132   H   0.225690843936903   0.325909578376582   0.685253103906376   1.0
H133   H   0.759026213885313   0.405609736921676   0.684255569763835   1.0
H134   H   0.725006105178799   0.186753059856429   0.192307779639172   1.0
H135   H   0.092632518930181   0.488125433864702   0.024601881019692   1.0
H136   H   0.262740495598202   0.116270872189041   0.193423008080046   1.0
H137   H   0.714359588207294   0.391409513200735   0.828924105235316   1.0
H138   H   0.782612240603271   0.162213959823866   0.307091608143622   1.0
H139   H   0.215712221659075   0.132547766492245   0.333776484083188   1.0
H140   H   0.154483879355766   0.499977385413985   0.903081369103553   1.0
H141   H   0.858058607271872   0.243828012571669   0.918679752915914   1.0
H142   H   0.645939699790858   0.016211828018939   0.417871983956147   1.0
H143   H   0.362846011342263   0.278685495233454   0.426674956391402   1.0
H144   H   0.182579698242307   0.474815916248979   0.043262390833682   1.0
H145   H   0.838795679146500   0.268411439944089   0.064700729880549   1.0
H146   H   0.674812776400103   0.040615349655290   0.558727079437460   1.0
H147   H   0.285232065073238   0.353526452992313   0.790493426453828   1.0
H148   H   0.965793890614208   0.501214707111231   0.822233728567106   1.0
H149   H   0.154294879050106   0.279259790859086   0.600677097498107   1.0
H150   H   0.456909062304184   0.019188955987595   0.335048124259451   1.0
H151   H   0.399625175963543   0.990614506852893   0.573734580323318   1.0
H152   H   0.567486993523438   0.304917789997972   0.559015393296086   1.0
H153   H   0.002110623422233   0.529491337990663   0.090589524921263   1.0
H154   H   0.982228005799016   0.209371337037254   0.129122792897150   1.0
H155   H   0.492122208935847   0.990740047179095   0.605454354927737   1.0
H156   H   0.486379834483586   0.310793889928881   0.642911499210555   1.0
H157   H   0.942740008424749   0.554482650587218   0.201514910573998   1.0
H158   H   0.060384434810935   0.188556499328634   0.202247043852232   1.0
H159   H   0.431785862314783   0.967302827057573   0.717474863567560   1.0
H160   H   0.566543936793359   0.330264485008975   0.711897064559189   1.0
H161   H   0.764659751601975   0.423416632474506   0.295980273970898   1.0
H162   H   0.235643474518341   0.315668473972750   0.277072185279714   1.0
H163   H   0.260775483204156   0.101997877234183   0.809471299387376   1.0
H164   H   0.736813899651331   0.200664467830222   0.784986640193019   1.0
H165   H   0.789732745947248   0.451781228076655   0.432442566608678   1.0
H166   H   0.211974669068077   0.288019133228509   0.414631719089989   1.0
H167   H   0.284414513656998   0.073659879346735   0.946812240687841   1.0
H168   H   0.715785107569005   0.230967313531025   0.919317515588205   1.0
H169   H   0.803464848951016   0.394565798036879   0.424406989789596   1.0
H170   H   0.202251549560778   0.345853089546836   0.408216306366327   1.0
H171   H   0.180828086912243   0.427050449649386   0.227334170714890   1.0
H172   H   0.064737140389262   0.213389388739479   0.048861624656887   1.0
H173   H   0.909701981843462   0.531332948986908   0.058195315254842   1.0
H174   H   0.659664461423041   0.237858081829806   0.111566012645170   1.0
H175   H   0.348389860579005   0.060117058314056   0.131502035754373   1.0
H176   H   0.541072433097177   0.278997570069606   0.340899651200097   1.0
H177   H   0.072873345180852   0.540658042045948   0.272060153212656   1.0
H178   H   0.922893260256572   0.194949224739226   0.313350145161479   1.0
H179   H   0.563173665068867   0.978742095459673   0.785286177273498   1.0
H180   H   0.433697630906558   0.329849055034785   0.833592087121950   1.0
H181   H   0.143876484149317   0.502655926954560   0.291718692201215   1.0
H182   H   0.858426014918834   0.237589296193363   0.297871636055689   1.0
H183   H   0.636008353499754   0.015326253099531   0.805276603779411   1.0
H184   H   0.368416651895238   0.288206217034791   0.808061736466513   1.0
H185   H   0.125535616601809   0.542906058452267   0.411616202292898   1.0
H186   H   0.032051218476184   0.240442143956436   0.829604600578698   1.0
H187   H   0.864270955908154   0.206262944267600   0.441550025944068   1.0
H188   H   0.371215827544255   0.317609220237742   0.955067898715846   1.0
H189   H   0.854424044306121   0.504422062548684   0.499492375619610   1.0
H190   H   0.146435406374898   0.236485059442053   0.487989707521947   1.0
H191   H   0.346311851593598   0.019122629962638   0.011717139431021   1.0
H192   H   0.653346298464015   0.281613127293099   0.001682707662404   1.0
H193   H   0.898279671944628   0.513569446910708   0.642657697984568   1.0
H194   H   0.107926160907539   0.230438124804053   0.637283986831818   1.0
H195   H   0.389564752435433   0.008714520141574   0.154749093708730   1.0
H196   H   0.616312380995950   0.287386051147060   0.152379371016380   1.0
H197   H   0.854500678161529   0.463054023013058   0.618263624196942   1.0
H198   H   0.615477970908714   0.975461724327559   0.925092972716854   1.0
H199   H   0.267621278833623   0.171287890294280   0.765074591669809   1.0
H200   H   0.934141597025338   0.375401104145794   0.980110701835734   1.0
H201   H   0.768082389487510   0.354058367376759   0.253321966304639   1.0
H202   H   0.983656512929485   0.329058678638369   0.583872737753310   1.0
H203   H   0.029200818107292   0.418458685806577   0.576817960649464   1.0
H204   H   0.498334292284454   0.207056220288727   0.398517207669052   1.0
H205   H   0.506648252179602   0.085370254284371   0.398407709003394   1.0
H206   H   0.995775719907208   0.314000535802443   0.883792359226639   1.0
H207   H   0.011948624503702   0.433632038592222   0.882920458098610   1.0
H208   H   0.447811629805401   0.174800079570389   0.294378464981378   1.0
H209   H   0.554880622645292   0.118950324069935   0.295096644525017   1.0
H210   H   0.945092431937510   0.346934205866077   0.781635900762367   1.0
H211   H   0.058476481114710   0.399592821205474   0.778336261379920   1.0
H212   H   0.446242831775081   0.189420460982049   0.600152835702453   1.0
H213   H   0.560811235819301   0.100561847854259   0.603113468041521   1.0
H214   H   0.525350737503537   0.101349216825923   0.092077247365253   1.0
H215   H   0.945549478073268   0.332081053843758   0.088165010715841   1.0
H216   H   0.432927328637241   0.146042775669983   0.492914682020455   1.0
H217   H   0.562745176463430   0.144514879006195   0.495826155019863   1.0
H218   H   0.301040806641296   0.130558532967363   0.937031888047024   1.0
H219   H   0.739005550989262   0.131089926104728   0.751334985766640   1.0
H220   H   0.417321431187624   0.156310239677914   0.797740238330803   1.0
H221   H   0.586481164486898   0.140467994596229   0.797108062156568   1.0
H222   H   0.918596833119203   0.366109493166462   0.284911140875025   1.0
H223   H   0.087840350852836   0.378308990848247   0.279833689177337   1.0
H224   H   0.446691689413491   0.116779031084931   0.689175742092722   1.0
H225   H   0.550652650597222   0.176689972417421   0.685405851507745   1.0
H226   H   0.949681054014363   0.404882764364579   0.175635675447857   1.0
H227   H   0.050932973400712   0.341711706251964   0.170166584841752   1.0
H228   H   0.064532882685725   0.416796794439939   0.085820344263716   1.0
H229   H   0.484837729383074   0.192761364324277   0.095401784310404   1.0
H230   H   0.065482865365219   0.372934011064281   0.978228252554729   1.0
H231   H   0.053984083129720   0.315446461606783   0.683441285694997   1.0
H232   H   0.957992173277120   0.426680069787011   0.679853001237454   1.0
H233   H   0.242426950884784   0.383488081193661   0.233431621699452   1.0
H234   H   0.269606929814010   0.202568752430132   0.626153397043744   1.0
H235   H   0.734871414203518   0.097482410405973   0.617380000840505   1.0
H236   H   0.768740925711725   0.322041737888455   0.115835762248103   1.0
H237   H   0.239211520224963   0.416863962496571   0.099110524048015   1.0
H238   H   0.276717338823858   0.031799915141662   0.519736207391368   1.0
H239   H   0.658666019015222   0.273722149149492   0.450108677035068   1.0
H240   H   0.783193616987042   0.491964645518010   0.002912065595830   1.0
H241   H   0.163127031150964   0.241054654188943   0.951307063816152   1.0
H242   H   0.346050394409168   0.029236042149542   0.404470064811250   1.0
H243   H   0.636835437246880   0.237653346745908   0.322300315404675   1.0
H244   H   0.853638900275875   0.493577037104181   0.889706834425503   1.0
H245   H   0.130207246305410   0.271641957531557   0.819268423233275   1.0
H246   H   0.704207596228954   0.173187434155736   0.921757826854744   1.0
H247   H   0.722443346028371   0.235773952691893   0.392031383256587   1.0
H248   H   0.453445860840240   0.094335010990044   0.194332579574485   1.0
H249   H   0.270981183788052   0.063367810377216   0.377686261447323   1.0
H250   H   0.556180300398665   0.203745702041601   0.195081458192305   1.0
H251   H   0.014517597178497   0.322064004196235   0.373751526070229   1.0
H252   H   0.483188738728707   0.099565452681993   0.890113897508613   1.0
H253   H   0.516357740709736   0.198933560578894   0.887619539057127   1.0
H254   H   0.987097671370222   0.421596881444401   0.376043633671159   1.0
H255   H   0.082246690196719   0.342292475266810   0.470679266288755   1.0
H256   H   0.419336374170918   0.121008375174391   0.993058817906345   1.0
H257   H   0.583434187227887   0.177296545324090   0.983441131676280   1.0
H258   H   0.218612549445339   0.279448270370061   0.872049582885445   1.0
H259   H   0.777710483605247   0.460428543052615   0.860721921346055   1.0
H260   H   0.922276609638715   0.401219645260930   0.478849188591838   1.0
O261   O   0.677963845442967   0.140407682527716   0.303444557708474   1.0
O262   O   0.150281106910832   0.445021511377867   0.597446320435267   1.0
O263   O   0.260878645437948   0.215485124601912   0.395557273140319   1.0
O264   O   0.741239183286446   0.080297421726257   0.361572588134266   1.0
O265   O   0.758128392636479   0.307552443454810   0.891027256523678   1.0
O266   O   0.246405710053566   0.434030333569545   0.844177782355658   1.0
O267   O   0.318219151480221   0.157329125140151   0.309413729126035   1.0
O268   O   0.815313816174147   0.364870923162862   0.799922223828759   1.0
O269   O   0.249827423479836   0.332763565195357   0.014870349458583   1.0
O270   O   0.241883543264706   0.117225186085839   0.562563311766461   1.0
O271   O   0.749832197761755   0.180362463984835   0.527796065201294   1.0
O272   O   0.744984252273532   0.408517313886961   0.051344351410364   1.0
O273   O   0.863846234711275   0.308373368723288   0.592831079797534   1.0
O274   O   0.346307319226646   0.085259119193218   0.510190108224265   1.0
O275   O   0.639508932694866   0.208926773154552   0.498086592932822   1.0
O276   O   0.851013680721969   0.437560860048990   0.995320019454610   1.0
O277   O   0.138288808326848   0.306456657773445   0.984832786109720   1.0
O278   O   0.180171006531616   0.374778994403549   0.789247625600986   1.0
O279   O   0.644556885126960   0.072038927912324   0.111946278354942   1.0
O280   O   0.941582119478490   0.254242804338148   0.411455081313207   1.0
O281   O   0.142791248919366   0.517234725839998   0.650715016805741   1.0
O282   O   0.164181149524829   0.244160114778410   0.200149481464983   1.0
O283   O   0.829867704871305   0.500946032658725   0.235391652675133   1.0
O284   O   0.321840547913666   0.023063685861040   0.750988431211887   1.0
O285   O   0.667498421492695   0.272301475908947   0.703777836054222   1.0
O286   O   0.549387844607054   0.262197724562135   0.713035733869368   1.0
O287   O   0.437381196010442   0.036041279713800   0.708281767917079   1.0
O288   O   0.944862898681770   0.485644379310621   0.194211470781845   1.0
O289   O   0.533332663705401   0.320052458878330   0.963353793850892   1.0
O290   O   0.469783457419204   0.978317977935319   0.958190033228362   1.0
O291   O   0.022254389176823   0.200759048907535   0.450638655987362   1.0
O292   O   0.979498036904559   0.542813203712598   0.444773957102754   1.0
O293   O   0.447932257296628   0.269190959282717   0.927119875093496   1.0
O294   O   0.550826442507891   0.031162286977512   0.913791012537395   1.0
O295   O   0.058100970720957   0.488513316876265   0.400618658576299   1.0
O296   O   0.360600387578913   0.287098313500316   0.176249668252680   1.0
O297   O   0.633495730924025   0.000016935602609   0.165108855431434   1.0
O298   O   0.852631181993573   0.237661977477323   0.660922625934717   1.0
O299   O   0.366914702252018   0.216295304915242   0.106736218446152   1.0
O300   O   0.046648514621616   0.256967244307397   0.200803537941468   1.0


# Number_of_total_atoms: 300
# Number_of_atom_type: 3
# Name_of_each_atom: C H O
# Number_of_each_atom: 100 160 40
# Created_by: Lihua Chen (lihua.chen@mse.gatech.edu)
# Tool: VASP
# K-points: 1 1 1
# Pseudopotential: PBE-HSE06
# Material_class: MC_Pol
# Geometry_class: GC_PD
# Bandgap_(eV): 6.25
