#======================================================================

# Note: Ordered slab of isotactic polyethyl acrylate
# Common_name: Ordered slab-010

#----------------------------------------------------------------------

data_1
_audit_creation_method   'vasp2cif'
_cell_length_a    7.9251999855
_cell_length_b    46.8819007874
_cell_length_c    6.22679996486
_cell_angle_alpha    90.0
_cell_angle_beta    91.1886978153
_cell_angle_gamma    90.0

_symmetry_space_group_name_H-M    'P 1'
loop_
_atom_site_label
_atom_site_type_symbol
_atom_site_fract_x
_atom_site_fract_y
_atom_site_fract_z
_atom_site_occupancy
C1   C   0.711711433906260   0.276817268294856   0.063545271192304   1.0
C2   C   0.592560216580594   0.613648654569047   0.330577264736462   1.0
C3   C   0.628606640167021   0.095035729107757   0.144855555838831   1.0
C4   C   0.518331197229955   0.432438086363575   0.408575851249907   1.0
C5   C   0.747361813828363   0.282176758738061   0.305737563992942   1.0
C6   C   0.629283166712320   0.619509107312119   0.572161744347461   1.0
C7   C   0.636966652739019   0.097162498485048   0.390299956844700   1.0
C8   C   0.531746942643409   0.434775160862067   0.654263453157775   1.0
C9   C   0.924972967312314   0.273980848276672   0.391152723508469   1.0
C10   C   0.808248290037128   0.612699316715762   0.658486856110422   1.0
C11   C   0.814468841312085   0.092315014899000   0.488661101254102   1.0
C12   C   0.708858540369249   0.428625269765341   0.748826653815946   1.0
C13   C   0.930841686395738   0.269136161441516   0.637458080636641   1.0
C14   C   0.811292862975897   0.609344803778306   0.905924160357394   1.0
C15   C   0.798232149947971   0.089624994478051   0.732832662401385   1.0
C16   C   0.698426598394384   0.425409867603385   0.993189241058801   1.0
C17   C   0.787671095958807   0.250281640484687   0.722296348772069   1.0
C18   C   0.680875075090817   0.587922345820331   0.990424388556427   1.0
C19   C   0.695743511763155   0.063699661901616   0.818044200308321   1.0
C20   C   0.583662162735237   0.401317948701099   0.082276305149854   1.0
C21   C   0.798534964121259   0.249848380679559   0.971842737853493   1.0
C22   C   0.690857007329356   0.587766942034740   0.239745581314899   1.0
C23   C   0.691278254228955   0.065618615761082   0.064598239394115   1.0
C24   C   0.587563261726174   0.403534866720498   0.327741485565177   1.0
C25   C   0.936299205758360   0.116477322659463   0.429800479811988   1.0
C26   C   0.836928119820129   0.451570092991012   0.687306307539487   1.0
C27   C   0.451341440647305   0.100038056077409   0.057114449081780   1.0
C28   C   0.337598430235388   0.435192865708828   0.326134632709440   1.0
C29   C   0.765104618806483   0.034627704598748   0.750785332955310   1.0
C30   C   0.633159805735950   0.371321684605895   0.012345112668236   1.0
C31   C   0.224107663528528   0.134232653788175   0.465016522956844   1.0
C32   C   0.126604701165711   0.467941814057213   0.731527805151728   1.0
C33   C   0.204101248070486   0.162408470528774   0.582041414992744   1.0
C34   C   0.109308495327753   0.496582458151764   0.842555614144075   1.0
C35   C   0.180137202366367   0.076574080800846   0.021131594997790   1.0
C36   C   0.075341258661382   0.408422906018842   0.301162865685392   1.0
C37   C   0.206509127240395   0.057294100206235   0.826830528595785   1.0
C38   C   0.097495936357696   0.389593681729856   0.103351221649149   1.0
C39   C   0.799467447822899   0.002498551153899   0.444454396827645   1.0
C40   C   0.690601249495586   0.343362175186556   0.690523405597922   1.0
C41   C   0.985263789419747   0.005590286094936   0.389964524277651   1.0
C42   C   0.882017662895329   0.345089832082387   0.699450531183530   1.0
C43   C   0.058133516934525   0.295464757467705   0.320494853456189   1.0
C44   C   0.937024943449863   0.635073831101984   0.590507742515179   1.0
C45   C   0.522000481122824   0.273571884674837   0.019397725327515   1.0
C46   C   0.404319189170465   0.607828208495000   0.289384593344721   1.0
C47   C   0.791994961986582   0.220264141782252   0.631944283416395   1.0
C48   C   0.706274216868181   0.557919075394651   0.905544606365858   1.0
C49   C   0.332225342169693   0.315628849908279   0.420224744151341   1.0
C50   C   0.220575625312172   0.652579264703704   0.677451725142753   1.0
C51   C   0.282126458489159   0.341383654009917   0.553558829666549   1.0
C52   C   0.185049429356994   0.676793915673471   0.833517224723948   1.0
C53   C   0.281076672725732   0.242940481523938   0.101506567821545   1.0
C54   C   0.176563631781491   0.575000658073854   0.383485682665032   1.0
C55   C   0.277413173257401   0.216945245285658   0.954874652838861   1.0
C56   C   0.181068069976952   0.548518414366335   0.242058752852827   1.0
C57   C   0.681200095800492   0.173588798430075   0.708170679801079   1.0
C58   C   0.603205697487176   0.509995151346793   0.957175822580254   1.0
C59   C   0.798083786800348   0.167446475536380   0.900448992416536   1.0
C60   C   0.708410410794357   0.503180342414339   0.158542041028348   1.0
H61   H   0.753242199375727   0.295485308584148   0.975060405796107   1.0
H62   H   0.623597437152128   0.632661912906379   0.238206047133254   1.0
H63   H   0.705924465937173   0.112171251951558   0.083502623179925   1.0
H64   H   0.587571080851646   0.450221066866788   0.341934173126205   1.0
H65   H   0.723722455040310   0.304768567638732   0.337014499339567   1.0
H66   H   0.601604678599927   0.641963482171661   0.605218896929905   1.0
H67   H   0.594846983655195   0.118443139427349   0.438636111461484   1.0
H68   H   0.494822894341247   0.456311033096711   0.703004687110365   1.0
H69   H   0.654808134742119   0.269928069829028   0.393389403356082   1.0
H70   H   0.540188283684365   0.606767625023295   0.661592080242968   1.0
H71   H   0.549671221024845   0.081636735839986   0.456799998858962   1.0
H72   H   0.442377183613829   0.419786618287567   0.723121653171418   1.0
H73   H   0.961333051780706   0.253477580141485   0.322521710533955   1.0
H74   H   0.851274681736093   0.592207463173203   0.596286368591770   1.0
H75   H   0.870563978428549   0.072720816744017   0.427196201921959   1.0
H76   H   0.758294956226507   0.408736688220969   0.684410067144668   1.0
H77   H   0.051670533617269   0.259146276997534   0.680541955256729   1.0
H78   H   0.937507934175720   0.602426173162051   0.957792446011439   1.0
H79   H   0.922014466312071   0.089930256932334   0.811176099235354   1.0
H80   H   0.824526217442077   0.423033111233884   0.062737261705124   1.0
H81   H   0.928676378895908   0.289493693235954   0.722450681575936   1.0
H82   H   0.789801672396813   0.630159364443493   0.981002129295803   1.0
H83   H   0.732253305232064   0.108735178589988   0.784261814567003   1.0
H84   H   0.648280572027808   0.445412496339408   0.053662486193431   1.0
H85   H   0.663439793640457   0.258881898812802   0.677523616485516   1.0
H86   H   0.551930247259854   0.593971185803774   0.943852569538222   1.0
H87   H   0.567255056976833   0.064906728982713   0.750836673376874   1.0
H88   H   0.454503844504792   0.404516895506191   0.020448008532483   1.0
H89   H   0.931890091889045   0.249590001409459   0.018633317839445   1.0
H90   H   0.823930252558178   0.589040461303121   0.287190775835697   1.0
H91   H   0.818937903922794   0.061836484626220   0.127070577905251   1.0
H92   H   0.718214637500765   0.400749678697210   0.382848690527048   1.0
H93   H   0.740478225396870   0.230718361144717   0.038251906186709   1.0
H94   H   0.640407027546665   0.567991371453488   0.306347091273139   1.0
H95   H   0.611699719165181   0.048757071370900   0.129717017266032   1.0
H96   H   0.514771001816101   0.386296969319737   0.397711591471925   1.0
H97   H   0.339484679269461   0.123320770293248   0.514316247210807   1.0
H98   H   0.238292183702669   0.456555640815360   0.787787726539200   1.0
H99   H   0.217783018208664   0.136910793850291   0.290672816598942   1.0
H100   H   0.124754495203078   0.470039503569623   0.556816807922537   1.0
H101   H   0.308811441698644   0.176474435398291   0.538397840776973   1.0
H102   H   0.218320499610463   0.509854849345494   0.801879410340959   1.0
H103   H   0.210524670314896   0.159136442260625   0.755981580892083   1.0
H104   H   0.109853783617261   0.493795131216380   0.016856568212219   1.0
H105   H   0.086875870439158   0.173128065904571   0.536230492853363   1.0
H106   H   0.995887131889155   0.507923743133830   0.789715305645963   1.0
H107   H   0.098673257412024   0.066781743057035   0.139498928403086   1.0
H108   H   0.003093983300424   0.397633002827583   0.424428059245877   1.0
H109   H   0.132785466430725   0.097662410554435   0.976715688691556   1.0
H110   H   0.018100824857569   0.429012420643964   0.262681579609165   1.0
H111   H   0.086004712742699   0.051684906964979   0.750758480736344   1.0
H112   H   0.974784490111261   0.381837225604414   0.046118510020364   1.0
H113   H   0.268410780106478   0.037443493334358   0.877433912665239   1.0
H114   H   0.173676149953081   0.370771907795707   0.143132612644287   1.0
H115   H   0.282486261781251   0.068084188668891   0.706803008873209   1.0
H116   H   0.155504437025321   0.401487111056291   0.972820126940199   1.0
H117   H   0.778313945205859   0.985312292356944   0.558806867726027   1.0
H118   H   0.639363481040796   0.324287450135856   0.765090873623755   1.0
H119   H   0.721204205985174   0.999504671809582   0.300222455134865   1.0
H120   H   0.644510335144382   0.345101292541742   0.525287314783448   1.0
H121   H   0.026948984793975   0.986166947907144   0.309114535350823   1.0
H122   H   0.931789660994134   0.331389471127885   0.574646795277935   1.0
H123   H   0.063528186710428   0.008684711817040   0.534576956484031   1.0
H124   H   0.936087984695277   0.338697131847049   0.854705260570150   1.0
H125   H   0.003330404940222   0.023378549022887   0.279192635493480   1.0
H126   H   0.923080114451452   0.366839234879350   0.663080623785248   1.0
H127   H   0.445630116671104   0.305383050218772   0.483993477575559   1.0
H128   H   0.334777833929166   0.641159189802778   0.724937697368709   1.0
H129   H   0.345694941868054   0.320643601111776   0.249983734782226   1.0
H130   H   0.226917722993164   0.659697162741125   0.510718210205880   1.0
H131   H   0.380551648892251   0.357574652175700   0.552760533411558   1.0
H132   H   0.290582672822836   0.691906153471365   0.833028883123589   1.0
H133   H   0.261919864838674   0.334985393216087   0.720284456804343   1.0
H134   H   0.173250138236170   0.668342362862710   0.996182106643765   1.0
H135   H   0.167675109738781   0.351117983155980   0.487415337587684   1.0
H136   H   0.069807161958359   0.688230614045885   0.787002206607461   1.0
H137   H   0.234342002448315   0.238036467813934   0.261070742725401   1.0
H138   H   0.132762661529668   0.570320445766683   0.544891655170510   1.0
H139   H   0.211933034591809   0.260911183968226   0.031460469140278   1.0
H140   H   0.100385834664600   0.591949144879869   0.310732209055082   1.0
H141   H   0.147175132325515   0.209353345800025   0.935645648644254   1.0
H142   H   0.053443087153433   0.539738590980008   0.224783693805037   1.0
H143   H   0.353856112981141   0.199610881379236   0.023969717819696   1.0
H144   H   0.262959546682204   0.532084107473217   0.313913948240973   1.0
H145   H   0.325510832727495   0.222108212770493   0.796013134450654   1.0
H146   H   0.226755828489516   0.553603380783940   0.081832500394839   1.0
H147   H   0.555345746350014   0.164852180495899   0.730573636408842   1.0
H148   H   0.477836210457902   0.500404067215079   0.962395780069969   1.0
H149   H   0.732207485038074   0.166371914073636   0.555989475675915   1.0
H150   H   0.665386350574352   0.504016622692561   0.809037764827281   1.0
H151   H   0.830429150787161   0.144883638105640   0.909740891691236   1.0
H152   H   0.747480877466664   0.480888599970711   0.161587146555824   1.0
H153   H   0.738866257674559   0.173374071420064   0.051169372475627   1.0
H154   H   0.637325307474669   0.507358118831355   0.303959319514441   1.0
H155   H   0.916865163876537   0.179137866188320   0.887930662805786   1.0
H156   H   0.824001079500619   0.515872604474801   0.164417194465209   1.0
O157   O   0.900979248856324   0.136321047765087   0.308601691009386   1.0
O158   O   0.809360618440977   0.470709636318148   0.556781547531095   1.0
O159   O   0.091558576410620   0.112880061404027   0.523679302880808   1.0
O160   O   0.988608916500418   0.447621978199145   0.789249917897443   1.0
O161   O   0.409886736637432   0.118305473278902   0.924918671855686   1.0
O162   O   0.285649227852140   0.453012331234362   0.196458664228430   1.0
O163   O   0.342838726312706   0.080112927675145   0.137295404145455   1.0
O164   O   0.240650002343067   0.413648377582916   0.406975640603278   1.0
O165   O   0.840739542849860   0.017932296710569   0.870214769886104   1.0
O166   O   0.682276265843420   0.352019225434347   0.131589141334970   1.0
O167   O   0.731541701944856   0.029399628329230   0.537799901381028   1.0
O168   O   0.615758049633719   0.368736267973091   0.795269013514790   1.0
O169   O   0.039422147353768   0.312643437858256   0.172708293894225   1.0
O170   O   0.909046120557065   0.654754474418759   0.464751982240237   1.0
O171   O   0.202080752275300   0.293032382781334   0.442397043741820   1.0
O172   O   0.088751092639264   0.630258446960084   0.691815085202727   1.0
O173   O   0.438746243397126   0.287254365864648   0.886591169590424   1.0
O174   O   0.315148317736444   0.619943712129647   0.154194265409124   1.0
O175   O   0.457613068207742   0.252039700888304   0.142146105215005   1.0
O176   O   0.350018476552592   0.586069674762982   0.418013493363546   1.0
O177   O   0.904514364536951   0.210211060166891   0.522555580358393   1.0
O178   O   0.832147089831317   0.549003901696999   0.815694920308125   1.0
O179   O   0.654657901857512   0.204907743607805   0.697024033422259   1.0
O180   O   0.569865886620185   0.541123915960036   0.953029396505258   1.0


# Number_of_total_atoms: 180
# Number_of_atom_type: 3
# Name_of_each_atom: C H O
# Number_of_each_atom: 60 96 24
# Created_by: Lihua Chen (lihua.chen@mse.gatech.edu)
# Tool: VASP
# K-points: 3 1 4
# Pseudopotential: PBE-HSE06
# Material_class: MC_Pol
# Geometry_class: GC_PD
# Bandgap_(eV): 5.24
