#======================================================================

# Note: Ordered slab of syndiotactic polyvinyl chloride
# Common_name: Ordered slab-010

#----------------------------------------------------------------------

data_1
_audit_creation_method   'vasp2cif'
_cell_length_a    9.8030004501
_cell_length_b    26.7985992432
_cell_length_c    5.1273999214
_cell_angle_alpha    90.0
_cell_angle_beta    90.0
_cell_angle_gamma    90.0

_symmetry_space_group_name_H-M    'P 1'
loop_
_atom_site_label
_atom_site_type_symbol
_atom_site_fract_x
_atom_site_fract_y
_atom_site_fract_z
_atom_site_occupancy
C1   C   0.248149910946779   0.051574614316571   0.750000023198893   1.0
C2   C   0.248645382433153   0.241825583106831   0.750000023198893   1.0
C3   C   0.751856097956463   0.198094701135126   0.249999999931738   1.0
C4   C   0.751749290818260   0.388457601063308   0.249999999931738   1.0
C5   C   0.746336868339213   0.197236390258013   0.750000023198893   1.0
C6   C   0.744180485543417   0.387467731857413   0.750000023198893   1.0
C7   C   0.255081553140769   0.052528054824421   0.249999999931738   1.0
C8   C   0.253401198461553   0.242750394632360   0.249999999931738   1.0
C9   C   0.250819459209552   0.022508215984161   0.499895212963097   1.0
C10   C   0.249743432588723   0.211212201069507   0.499372178185375   1.0
C11   C   0.749605646042475   0.230033967266934   0.500702078461835   1.0
C12   C   0.748853461568430   0.417562469564913   0.500007230863915   1.0
C13   C   0.749605646042475   0.230033967266934   0.999297921596671   1.0
C14   C   0.748853461568430   0.417562469564913   0.999992769194591   1.0
C15   C   0.250819459209552   0.022508215984161   0.000104787095410   1.0
C16   C   0.249743432588723   0.211212201069507   0.000627821873131   1.0
H17   H   0.159846765911652   0.001760680237076   0.017104849833878   1.0
H18   H   0.157899726363411   0.187243890611342   0.012831785095088   1.0
H19   H   0.827990345290019   0.171422033219542   0.750000023198893   1.0
H20   H   0.823672632322747   0.360848564830121   0.750000023198893   1.0
H21   H   0.176376164459022   0.079305829034588   0.249999999931738   1.0
H22   H   0.172076773611494   0.268723826210987   0.249999999931738   1.0
H23   H   0.658654598133225   0.252801862857410   0.012463699515102   1.0
H24   H   0.659909642466161   0.438351647392203   0.017136168003553   1.0
H25   H   0.340170643313265   0.001836033491827   0.982896579829607   1.0
H26   H   0.341801242710446   0.187292707893960   0.987483740142537   1.0
H27   H   0.340170643313265   0.001836033491827   0.517103373733605   1.0
H28   H   0.341801242710446   0.187292707893960   0.512516213420675   1.0
H29   H   0.658654598133225   0.252801862857410   0.487536294692489   1.0
H30   H   0.659909642466161   0.438351647392203   0.482863826204039   1.0
H31   H   0.159846765911652   0.001760680237076   0.482895144373714   1.0
H32   H   0.157899726363411   0.187243890611342   0.487168209112504   1.0
H33   H   0.841749306969128   0.252923677819510   0.512785901288822   1.0
H34   H   0.840338641791050   0.438468181699030   0.517088313942772   1.0
H35   H   0.841749306969128   0.252923677819510   0.987214052274389   1.0
H36   H   0.840338641791050   0.438468181699030   0.982911639620440   1.0
H37   H   0.671892203988996   0.171543978034258   0.249999999931738   1.0
H38   H   0.676172778203807   0.361028073545711   0.249999999931738   1.0
H39   H   0.323986895855832   0.079149495823145   0.750000023198893   1.0
H40   H   0.328247406077239   0.268598559748973   0.750000023198893   1.0
Cl41   Cl   0.062941564710023   0.086411110863665   0.750000023198893   1.0
Cl42   Cl   0.090571740942217   0.293513447492515   0.750000023198893   1.0
Cl43   Cl   0.609683746926500   0.148579568609733   0.750000023198893   1.0
Cl44   Cl   0.582194796270436   0.355503637686468   0.750000023198893   1.0
Cl45   Cl   0.418287921392284   0.084853861123101   0.249999999931738   1.0
Cl46   Cl   0.390693127860672   0.292023073923872   0.249999999931738   1.0
Cl47   Cl   0.909129067131325   0.147020107897632   0.249999999931738   1.0
Cl48   Cl   0.937897010867133   0.354008561467957   0.249999999931738   1.0


# Number_of_total_atoms: 48
# Number_of_atom_type: 3
# Name_of_each_atom: C H Cl
# Number_of_each_atom: 16 24 8
# Created_by: Lihua Chen (lihua.chen@mse.gatech.edu)
# Tool: VASP
# K-points: 3 1 6
# Pseudopotential: PBE-HSE06
# Material_class: MC_Pol
# Geometry_class: GC_PD
# Bandgap_(eV): 5.75
