#======================================================================

# Note: Ordered slab of polyvinylidene fluoride (alpha)
# Common_name: Ordered slab-010

#----------------------------------------------------------------------

data_1
_audit_creation_method   'vasp2cif'
_cell_length_a    8.2920999527
_cell_length_b    25.1177005768
_cell_length_c    4.58549976353
_cell_angle_alpha    90.0
_cell_angle_beta    90.384002685
_cell_angle_gamma    90.0

_symmetry_space_group_name_H-M    'P 1'
loop_
_atom_site_label
_atom_site_type_symbol
_atom_site_fract_x
_atom_site_fract_y
_atom_site_fract_z
_atom_site_occupancy
C1   C   0.021352030094143   0.005493912341123   0.091156532612551   1.0
C2   C   0.000024939010366   0.234924957504020   0.101545970044675   1.0
C3   C   0.012734251797411   0.053692652496956   0.591391862086624   1.0
C4   C   0.997489290949531   0.283071699490435   0.602126396848718   1.0
C5   C   0.480699025422254   0.167765740843421   0.981503309901008   1.0
C6   C   0.457937598740280   0.396336991759419   0.991308031289137   1.0
C7   C   0.485887766374340   0.118991950363473   0.481670764940382   1.0
C8   C   0.472573950983112   0.347635722742254   0.492877018253289   1.0
C9   C   0.057050572444083   0.055200753313073   0.269920643779123   1.0
C10   C   0.043991933947446   0.283707792593439   0.281336200329520   1.0
C11   C   0.070561618081761   0.006480362799081   0.771502017493859   1.0
C12   C   0.048017930211820   0.234930870070158   0.781522235591858   1.0
C13   C   0.532550737997944   0.119782381638416   0.160991430962028   1.0
C14   C   0.516661362444616   0.349237047091407   0.171319426766935   1.0
C15   C   0.528748618954538   0.167871728324272   0.661528134278313   1.0
C16   C   0.507211414305210   0.397419451426686   0.671692372326063   1.0
F17   F   0.108512152456591   0.961363863752503   0.211639065609013   1.0
F18   F   0.081894543997791   0.188944628895655   0.221094749825944   1.0
F19   F   0.858073668953345   0.991402770544703   0.116195339128730   1.0
F20   F   0.835884996649114   0.223564971043579   0.131203066816511   1.0
F21   F   0.692659938774675   0.179596459089105   0.632062927656349   1.0
F22   F   0.670256223908147   0.411831463060999   0.646865035712004   1.0
F23   F   0.457188899835970   0.072499334173038   0.042769072284493   1.0
F24   F   0.446963096300479   0.300908265887436   0.053137862932545   1.0
F25   F   0.445980251593873   0.213665367843163   0.541822393050786   1.0
F26   F   0.419268494706344   0.441371499356777   0.551204217843747   1.0
F27   F   0.698148145104831   0.111045168266074   0.129951104214577   1.0
F28   F   0.683309116797439   0.342805174492192   0.137191984245717   1.0
F29   F   0.846143286794465   0.060359815773111   0.625016370325959   1.0
F30   F   0.832199358017490   0.292352318893968   0.633593267687694   1.0
F31   F   0.082919850588006   0.101926978769811   0.709636198759817   1.0
F32   F   0.074318484537386   0.330125081019666   0.720135608495461   1.0
H33   H   0.544676846116879   0.084241668489199   0.577799984923423   1.0
H34   H   0.536932385142727   0.313882988966718   0.587699401915728   1.0
H35   H   0.349247450107903   0.170598266505827   0.994317239958669   1.0
H36   H   0.326108847597077   0.397408647371975   0.001289581199792   1.0
H37   H   0.531980474067545   0.203738517190757   0.077887429943914   1.0
H38   H   0.503427058555097   0.432995632293668   0.088987859481847   1.0
H39   H   0.186480335698071   0.062676373835622   0.252722781660779   1.0
H40   H   0.174617414500141   0.288763262291546   0.266275756245250   1.0
H41   H   0.202361990507811   0.005093404807219   0.761517651165541   1.0
H42   H   0.179369533760848   0.231700714228893   0.768570646370577   1.0
H43   H   0.993487348370778   0.089108271653565   0.175031212775558   1.0
H44   H   0.985929063277574   0.318589035564663   0.185172004277959   1.0
H45   H   0.355381715889123   0.113613617939741   0.496611531814203   1.0
H46   H   0.343342576953496   0.339834034524223   0.510156834471204   1.0
H47   H   0.024239251373430   0.969938958619267   0.673771246163930   1.0
H48   H   0.995714228217182   0.199129521177390   0.685028049363552   1.0


# Number_of_total_atoms: 48
# Number_of_atom_type: 3
# Name_of_each_atom: C F H
# Number_of_each_atom: 16 16 16
# Created_by: Lihua Chen (lihua.chen@mse.gatech.edu)
# Tool: VASP
# K-points: 3 1 6
# Pseudopotential: PBE-HSE06
# Material_class: MC_Pol
# Geometry_class: GC_PD
# Bandgap_(eV): 8.50
