#======================================================================

# Note: Ordered slab of polyvinylidene fluoride (beta)
# Common_name: Ordered slab-001

#----------------------------------------------------------------------

data_1
_audit_creation_method   'vasp2cif'
_cell_length_a    2.5357999802
_cell_length_b    7.7319998741
_cell_length_c    23.6564998627
_cell_angle_alpha    90.0
_cell_angle_beta    90.0
_cell_angle_gamma    90.0

_symmetry_space_group_name_H-M    'P 1'
loop_
_atom_site_label
_atom_site_type_symbol
_atom_site_fract_x
_atom_site_fract_y
_atom_site_fract_z
_atom_site_occupancy
C1   C   0.000000000000000   0.000000000000000   0.930895577904906   1.0
C2   C   0.000000000000000   0.000000000000000   0.236898726922519   1.0
C3   C   0.000000000000000   0.499999999993534   0.084778901201162   1.0
C4   C   0.000000000000000   0.499999999993534   0.389822017409031   1.0
C5   C   0.499999999960565   0.000000000000000   0.966382463217876   1.0
C6   C   0.499999999960565   0.000000000000000   0.272389968427824   1.0
C7   C   0.499999999960565   0.499999999993534   0.120269080210875   1.0
C8   C   0.499999999960565   0.499999999993534   0.425299160592253   1.0
F9   F   0.499999999960565   0.854405290123687   0.002082321170356   1.0
F10   F   0.499999999960565   0.854280281685533   0.307982908425686   1.0
F11   F   0.499999999960565   0.354328241706696   0.155876523284917   1.0
F12   F   0.499999999960565   0.354527494520624   0.461036824116050   1.0
F13   F   0.499999999960565   0.145594740644547   0.002082321170356   1.0
F14   F   0.499999999960565   0.145719749082701   0.307982908425686   1.0
F15   F   0.499999999960565   0.645671789061545   0.155876523284917   1.0
F16   F   0.499999999960565   0.645472536247617   0.461036824116050   1.0
H17   H   0.000000000000000   0.885312658430017   0.903779286499791   1.0
H18   H   0.000000000000000   0.884764923220040   0.210021920917569   1.0
H19   H   0.000000000000000   0.384678798542680   0.057924047829985   1.0
H20   H   0.000000000000000   0.384792913580938   0.362933213899808   1.0
H21   H   0.000000000000000   0.114687357076967   0.903779286499791   1.0
H22   H   0.000000000000000   0.115235092286952   0.210021920917569   1.0
H23   H   0.000000000000000   0.615321201444388   0.057924047829985   1.0
H24   H   0.000000000000000   0.615207086406130   0.362933213899808   1.0


# Number_of_total_atoms: 24
# Number_of_atom_type: 3
# Name_of_each_atom: C F H
# Number_of_each_atom: 8 8 8
# Created_by: Lihua Chen (lihua.chen@mse.gatech.edu)
# Tool: VASP
# K-points: 12 4 1
# Pseudopotential: PBE-HSE06
# Material_class: MC_Pol
# Geometry_class: GC_PD
# Bandgap_(eV): 5.01
