#======================================================================

# Note: Ordered slab of polyvinylidene fluoride (gamma)
# Common_name: Ordered slab-010

#----------------------------------------------------------------------

data_1
_audit_creation_method   'vasp2cif'
_cell_length_a    8.2320995331
_cell_length_b    8.97229957585
_cell_length_c    25.5522003174
_cell_angle_alpha    90.0
_cell_angle_beta    90.0
_cell_angle_gamma    90.0067977908

_symmetry_space_group_name_H-M    'P 1'
loop_
_atom_site_label
_atom_site_type_symbol
_atom_site_fract_x
_atom_site_fract_y
_atom_site_fract_z
_atom_site_occupancy
C1   C   0.012251471612245   0.553461355347572   0.012075658559482   1.0
C2   C   0.011975794120659   0.573983289614091   0.274837094223912   1.0
C3   C   0.150208486499444   0.809611526801731   0.016825163170118   1.0
C4   C   0.148802083094275   0.829398419647191   0.279255474597789   1.0
C5   C   0.999896366329786   0.053486577824522   0.012043695003719   1.0
C6   C   0.000861698704362   0.073971723211727   0.274773259162856   1.0
C7   C   0.861977643374750   0.309614540991696   0.017219761244263   1.0
C8   C   0.863950785574950   0.329360053144377   0.278775016671851   1.0
C9   C   0.513833284934385   0.585663718108187   0.137836227221669   1.0
C10   C   0.513826210828043   0.603682780055358   0.400059542451842   1.0
C11   C   0.649871743102096   0.842020819059613   0.135374586441238   1.0
C12   C   0.654401658419786   0.859616192912178   0.397037725682850   1.0
C13   C   0.498079296071879   0.085657197883158   0.137882523145329   1.0
C14   C   0.501629555039031   0.103667700923189   0.400162152014253   1.0
C15   C   0.362096432563888   0.341950634570566   0.135209022398634   1.0
C16   C   0.361136847199788   0.359501150346794   0.396269556507491   1.0
C17   C   0.163046081514985   0.646494571446688   0.000471509839748   1.0
C18   C   0.160716104250440   0.667540621729103   0.261986283973968   1.0
C19   C   0.991556145036888   0.887479590322769   0.001887955889060   1.0
C20   C   0.994235044750674   0.909738703097965   0.262369041284856   1.0
C21   C   0.848777851674335   0.146505983037827   0.000879971363730   1.0
C22   C   0.852449372314901   0.167470139622871   0.261517234050160   1.0
C23   C   0.020477378713352   0.387396219780669   0.002056127690736   1.0
C24   C   0.018698506429942   0.409899409779818   0.262178940810941   1.0
C25   C   0.660549649951193   0.679660797919333   0.152569858760359   1.0
C26   C   0.663932698687809   0.696043848774359   0.413396027001006   1.0
C27   C   0.491277610123703   0.920742416855461   0.149331971610259   1.0
C28   C   0.492680538819450   0.936924978580308   0.408717716945773   1.0
C29   C   0.351302083067445   0.179668284660700   0.152499117983673   1.0
C30   C   0.351003496408517   0.196095525834664   0.412798944177503   1.0
C31   C   0.520580759319266   0.420732548446111   0.149257267740104   1.0
C32   C   0.522373938288723   0.436920100227120   0.408602004474844   1.0
F33   F   0.204071278343434   0.637307392162910   0.947414120360406   1.0
F34   F   0.193351017667624   0.660156664582090   0.207743864234637   1.0
F35   F   0.862447319985073   0.824576282740757   0.032097735846257   1.0
F36   F   0.857589194441346   0.844992151946016   0.288031753305631   1.0
F37   F   0.711540743817736   0.087940966143137   0.028467241521071   1.0
F38   F   0.709663008404547   0.108585922803911   0.285385029236984   1.0
F39   F   0.060807710048550   0.356740403648729   0.949768498570180   1.0
F40   F   0.046219130655778   0.387454400179834   0.208197460437617   1.0
F41   F   0.805713122849951   0.620780473139860   0.130463252444954   1.0
F42   F   0.804798503014752   0.636299504929688   0.388316051007202   1.0
F43   F   0.452558646695806   0.894265552233563   0.202356014544257   1.0
F44   F   0.439140091584171   0.902377949822380   0.459469457936706   1.0
F45   F   0.325759780365850   0.173128949803569   0.207206136934182   1.0
F46   F   0.315305532136833   0.187870367254675   0.466350003484003   1.0
F47   F   0.651443524256997   0.356527011304898   0.120254933172305   1.0
F48   F   0.644940648482191   0.376527441194249   0.374967020406317   1.0
F49   F   0.301064889716812   0.588012455444051   0.027660986215565   1.0
F50   F   0.302978982076837   0.608641814256337   0.286163714026891   1.0
F51   F   0.950935238217824   0.857207287601028   0.949598170492365   1.0
F52   F   0.967017623972481   0.886605861798245   0.208404604490347   1.0
F53   F   0.806252180061925   0.137364739983738   0.947945606124541   1.0
F54   F   0.821053342120599   0.159937329702792   0.207201171772418   1.0
F55   F   0.149743378752959   0.324681991073504   0.032228419598624   1.0
F56   F   0.155124021423575   0.344934560660569   0.287849025071580   1.0
F57   F   0.685912454862162   0.672888109284315   0.207283946795535   1.0
F58   F   0.697556949525584   0.687291325985235   0.467069247289935   1.0
F59   F   0.360572886884611   0.856469456455486   0.120251809053059   1.0
F60   F   0.371477935078389   0.876461981935364   0.374595615986436   1.0
F61   F   0.206194799530728   0.120660124648005   0.130381181318839   1.0
F62   F   0.211159128235586   0.135999211463115   0.387248486448144   1.0
F63   F   0.559015015471346   0.394206823987325   0.202311069717496   1.0
F64   F   0.573913838413681   0.402313808508296   0.459557755337400   1.0
H65   H   0.913521907699398   0.597471984782352   0.988085768870000   1.0
H66   H   0.909378381336481   0.620083462209500   0.253287945540450   1.0
H67   H   0.162517822239373   0.816448463365134   0.059346658852107   1.0
H68   H   0.154393316321176   0.832822727702187   0.321966717024260   1.0
H69   H   0.034364310268707   0.069781814706900   0.053016791785033   1.0
H70   H   0.027002823990479   0.086603524604207   0.316537722221724   1.0
H71   H   0.759490991599911   0.369178667146315   0.999709527543693   1.0
H72   H   0.758972790572791   0.389007250787806   0.263126948368402   1.0
H73   H   0.490403378165297   0.599464095185176   0.095991698978516   1.0
H74   H   0.482682011663911   0.622312427598615   0.358972332162296   1.0
H75   H   0.750934351801902   0.902173441322077   0.153313223004197   1.0
H76   H   0.752497718229229   0.918592962700622   0.417222364033755   1.0
H77   H   0.602311911942770   0.130484636061276   0.158910003014874   1.0
H78   H   0.600631964909887   0.146466384165038   0.424330368243680   1.0
H79   H   0.347912524962751   0.346667090643891   0.092728677077659   1.0
H80   H   0.341487978504709   0.366942999423941   0.354048276756607   1.0
H81   H   0.978633891815903   0.570015301248198   0.053113063525373   1.0
H82   H   0.985191942750532   0.586110583647965   0.316579724057320   1.0
H83   H   0.252446134785920   0.869139465213216   0.999133696582476   1.0
H84   H   0.254039172199448   0.889139626814405   0.263825708318983   1.0
H85   H   0.098053852000731   0.097727640131680   0.987858557800585   1.0
H86   H   0.103862699378133   0.119743603077708   0.253332477502091   1.0
H87   H   0.850341499903394   0.316411726408816   0.059758269234692   1.0
H88   H   0.857568767235335   0.332802629301995   0.321468840099165   1.0
H89   H   0.409508539859431   0.630401167977006   0.158830567207261   1.0
H90   H   0.413859832619124   0.646378402974634   0.423819189706300   1.0
H91   H   0.664419075320694   0.846953497929860   0.092907522628622   1.0
H92   H   0.675770404200698   0.867414685433971   0.354912509663841   1.0
H93   H   0.521695000418788   0.099369369597049   0.096048766022314   1.0
H94   H   0.534420626312915   0.122121073822093   0.359207676564587   1.0
H95   H   0.260912903031688   0.402165867935459   0.153024618819110   1.0
H96   H   0.262212813720879   0.418624070438817   0.415957943008827   1.0


# Number_of_total_atoms: 96
# Number_of_atom_type: 3
# Name_of_each_atom: C F H
# Number_of_each_atom: 32 32 32
# Created_by: Lihua Chen (lihua.chen@mse.gatech.edu)
# Tool: VASP
# K-points: 3 3 1
# Pseudopotential: PBE-HSE06
# Material_class: MC_Pol
# Geometry_class: GC_PD
# Bandgap_(eV): 7.92
