#======================================================================

# Note: Disordered slab of polyethylene
# Common_name: Disordered slab-1

#----------------------------------------------------------------------

data_1
_audit_creation_method   'vasp2cif'
_cell_length_a    8.7287941
_cell_length_b    8.6758404
_cell_length_c    45.0
_cell_angle_alpha    90.0
_cell_angle_beta    90.0
_cell_angle_gamma    90.0

_symmetry_space_group_name_H-M    'P 1'
loop_
_atom_site_label
_atom_site_type_symbol
_atom_site_fract_x
_atom_site_fract_y
_atom_site_fract_z
_atom_site_occupancy
C1   C   0.096376153494099   0.907148061414318   0.300835588888887   1.0
C2   C   0.423156664905179   0.291680215786357   0.877706740000001   1.0
C3   C   0.508414696137692   0.266587430538721   0.848344422222219   1.0
C4   C   0.412456343769179   0.249643907695678   0.821435546666663   1.0
C5   C   0.510706009206928   0.221001276141500   0.795168897777778   1.0
C6   C   0.422652563198852   0.208011018736585   0.765833368888892   1.0
C7   C   0.520730257573611   0.180094530093015   0.737468888888891   1.0
C8   C   0.418654221663907   0.185788537557698   0.710508897777778   1.0
C9   C   0.521635342503956   0.145711716872981   0.682208931111113   1.0
C10   C   0.418207584940056   0.162747369119423   0.654153357777780   1.0
C11   C   0.505458869742384   0.128099417319845   0.625435553333332   1.0
C12   C   0.398640025201189   0.124918249994551   0.598391133333337   1.0
C13   C   0.495251297083520   0.095341933675961   0.570333353333332   1.0
C14   C   0.399235685946586   0.101404631648137   0.543646664444445   1.0
C15   C   0.502801114302834   0.084968275811065   0.516782208888891   1.0
C16   C   0.430293928000893   0.105081554981119   0.487017737777777   1.0
C17   C   0.539656044813796   0.078259899755650   0.460900031111109   1.0
C18   C   0.461386481782171   0.090938855906110   0.431202188888889   1.0
C19   C   0.572215032543845   0.073833953884169   0.404524484444444   1.0
C20   C   0.487174637330490   0.049225271594438   0.373613315555552   1.0
C21   C   0.584003545231980   0.054942366159707   0.345313348888887   1.0
C22   C   0.481297536849908   0.052279811417463   0.317624411111112   1.0
C23   C   0.532094862908956   0.234210278925829   0.902526686666668   1.0
C24   C   0.677017665017438   0.337174275358961   0.903822157777775   1.0
C25   C   0.824369015646731   0.274021961031004   0.889088948888890   1.0
C26   C   0.943045214000406   0.397917704894617   0.877380033333331   1.0
C27   C   0.015643294873918   0.412002795717633   0.252168866666665   1.0
C28   C   0.081253789684418   0.422480224509435   0.283053335555557   1.0
C29   C   0.973805408011629   0.428658334932024   0.308404457777776   1.0
C30   C   0.053460557627311   0.408199244882376   0.338091108888889   1.0
C31   C   0.933524849669666   0.417915779086947   0.364131080000000   1.0
C32   C   0.014257055278691   0.423609786551630   0.395233324444447   1.0
C33   C   0.914117907764599   0.427355740661156   0.424057768888886   1.0
C34   C   0.015666241915362   0.408510327137876   0.450988855555558   1.0
C35   C   0.930122398006844   0.404384040997343   0.482302264444442   1.0
C36   C   0.022299391848414   0.361644654044120   0.511111111111113   1.0
C37   C   0.577267253903948   0.086581940811172   0.289055548888889   1.0
C38   C   0.926399168929876   0.386149346407983   0.539784411111114   1.0
C39   C   0.923156876847401   0.394367639589127   0.596504466666666   1.0
C40   C   0.010052660080504   0.451918248749713   0.623777771111108   1.0
C41   C   0.914301232056786   0.465565410815991   0.651853348888892   1.0
C42   C   0.008002583083041   0.488882932885673   0.680706702222224   1.0
C43   C   0.914060648996177   0.437960015954189   0.709355586666668   1.0
C44   C   0.012848521653183   0.410181600389976   0.736242251111108   1.0
C45   C   0.912410890755233   0.386783382967721   0.763513353333330   1.0
C46   C   0.006524119981243   0.374623269925529   0.792539977777778   1.0
C47   C   0.916168637773232   0.350775251697804   0.821406724444444   1.0
C48   C   0.026847511502190   0.356400228385944   0.848811171111109   1.0
C49   C   0.023376230171358   0.380709043472031   0.568086666666666   1.0
C50   C   0.474045767673680   0.056187144705888   0.260962253333332   1.0
C51   C   0.976681028597064   0.561521601987977   0.239044444444446   1.0
C52   C   0.541764033590852   0.165744300690456   0.207468922222219   1.0
C53   C   0.236521399903339   0.779529220016542   0.862915548888886   1.0
C54   C   0.073176923717334   0.857677430304044   0.866384382222222   1.0
C55   C   0.969704154208429   0.849078816618160   0.838524373333335   1.0
C56   C   0.044547665524611   0.917948213985127   0.809113397777779   1.0
C57   C   0.943125408353943   0.898134364020805   0.780135600000001   1.0
C58   C   0.020615321880484   0.959430938817178   0.749615564444447   1.0
C59   C   0.908046118306309   0.940539570091680   0.723239984444447   1.0
C60   C   0.996763172589901   0.926569684246381   0.694255575555559   1.0
C61   C   0.997461974730278   0.914144432624646   0.636948904444445   1.0
C62   C   0.896520895137165   0.899482901967630   0.609177737777777   1.0
C63   C   0.993097855292518   0.895644829980967   0.580793337777777   1.0
C64   C   0.890071069496301   0.884210640850426   0.551733313333337   1.0
C65   C   0.971938002295182   0.848421473958879   0.522333357777775   1.0
C66   C   0.898594572187243   0.863382871819539   0.492217764444447   1.0
C67   C   0.006478890365855   0.868984542408135   0.466820017777778   1.0
C68   C   0.929091236096404   0.908646521436701   0.437395562222221   1.0
C69   C   0.037639391677253   0.904681372423589   0.412206693333331   1.0
C70   C   0.953229851074163   0.937623541345921   0.383084446666665   1.0
C71   C   0.073566530799482   0.955189228699965   0.357115597777778   1.0
C72   C   0.996981690746949   0.936309294025278   0.327151151111110   1.0
C73   C   0.567013787162189   0.045605944987187   0.231342231111114   1.0
C74   C   0.375990791213645   0.875750526715542   0.872753397777778   1.0
C75   C   0.533274831170552   0.781799789678011   0.873064506666665   1.0
C76   C   0.891400061779436   0.925405382053825   0.665513355555554   1.0
C77   C   0.572066008522299   0.772290566802035   0.816006639999998   1.0
C78   C   0.558914203280381   0.685267608196206   0.845571051111108   1.0
C79   C   0.431863503344637   0.436818800862220   0.226135593333332   1.0
C80   C   0.469165299706177   0.574949788149631   0.248564402222222   1.0
C81   C   0.507750194267956   0.498645641291418   0.277957746666665   1.0
C82   C   0.478020944496791   0.600180623424102   0.305231137777781   1.0
C83   C   0.527306171650906   0.522528169144280   0.333788893333335   1.0
C84   C   0.494712883650216   0.628408413322127   0.361411115555555   1.0
C85   C   0.485410373009025   0.629745517218133   0.419771151111114   1.0
C86   C   0.512149507570584   0.542503156236023   0.450415548888891   1.0
C87   C   0.430465681393493   0.631981346729248   0.476875560000003   1.0
C88   C   0.479991491608217   0.573024810368800   0.506697762222224   1.0
C89   C   0.540996401782465   0.535184038194153   0.391324446666665   1.0
C90   C   0.570187238120326   0.330973285308474   0.220439995555559   1.0
C91   C   0.419731266200905   0.661868964302293   0.534273360000000   1.0
C92   C   0.527500860628621   0.764475923277701   0.759288873333333   1.0
C93   C   0.471926196540714   0.652486818452772   0.733866628888890   1.0
C94   C   0.487392284805985   0.721482843322015   0.703677793333334   1.0
C95   C   0.458568108508828   0.613251345656380   0.676415593333331   1.0
C96   C   0.518897163584143   0.672726725125095   0.788413324444441   1.0
C97   C   0.457663035034820   0.570096909574318   0.621311102222222   1.0
C98   C   0.438897636501700   0.666410541623151   0.591426679999998   1.0
C99   C   0.469669401412503   0.573001504269257   0.562540011111111   1.0
C100   C   0.461833118506028   0.690120048773601   0.645897759999997   1.0
H101   H   0.356240124852988   0.098384820449212   0.768328857777774   1.0
H102   H   0.312133207495407   0.087112217970258   0.656066639999999   1.0
H103   H   0.368956658056582   0.273572379224497   0.653804440000002   1.0
H104   H   0.555202327432603   0.026057464127625   0.681911128888892   1.0
H105   H   0.609390740468953   0.235581892446987   0.680266655555556   1.0
H106   H   0.321263953287662   0.104724286998177   0.711913299999999   1.0
H107   H   0.371683254620479   0.301062580634841   0.708788893333335   1.0
H108   H   0.576304921661517   0.072681304741380   0.737968868888892   1.0
H109   H   0.611166587146329   0.260444060266487   0.734611086666668   1.0
H110   H   0.346399200778492   0.306871793077242   0.761415608888889   1.0
H111   H   0.702863079334179   0.362428405206714   0.926471117777780   1.0
H112   H   0.605449875372820   0.302399684530847   0.790328811111110   1.0
H113   H   0.332697388291010   0.158309770198173   0.824080064444445   1.0
H114   H   0.347017808565333   0.358359715791913   0.819128928888887   1.0
H115   H   0.571275658799195   0.159566190267860   0.850328911111113   1.0
H116   H   0.590934754664453   0.361437123716570   0.844946628888891   1.0
H117   H   0.319190276237585   0.216217877866910   0.878826735555556   1.0
H118   H   0.384136269178349   0.405962977373349   0.879606628888887   1.0
H119   H   0.470253708928702   0.238590269595093   0.924977791111111   1.0
H120   H   0.564172684517786   0.113426683137234   0.898368835555559   1.0
H121   H   0.606125730471753   0.206235974557579   0.623331113333336   1.0
H122   H   0.569442553353390   0.112412303020235   0.798906622222219   1.0
H123   H   0.549141879747168   0.013055991670846   0.629300011111113   1.0
H124   H   0.675264776837842   0.012866707414304   0.289317746666668   1.0
H125   H   0.306027094853803   0.038309925572165   0.602397748888890   1.0
H126   H   0.647368609599809   0.447699637259348   0.894846597777779   1.0
H127   H   0.617100946395333   0.207745880157042   0.289924451111112   1.0
H128   H   0.422446280408884   0.941127443976491   0.315299988888888   1.0
H129   H   0.400473130646994   0.145700063823213   0.321737755555553   1.0
H130   H   0.668276308636955   0.965390084861404   0.344626702222222   1.0
H131   H   0.641984028469636   0.163369971628342   0.345339966666664   1.0
H132   H   0.421323570915710   0.939986447883484   0.373104435555554   1.0
H133   H   0.401068791392390   0.137481782168329   0.375040013333333   1.0
H134   H   0.661620200206123   0.985480495929821   0.407608879999998   1.0
H135   H   0.629187300912506   0.177443409401583   0.401737806666667   1.0
H136   H   0.349228938737369   0.239212653105049   0.598724453333332   1.0
H137   H   0.385854868543639   0.984823591268459   0.430460017777776   1.0
H138   H   0.599996682245028   0.964018690339209   0.464062248888887   1.0
H139   H   0.634411493335605   0.160845697438141   0.464066653333333   1.0
H140   H   0.353880188329796   0.008613563246279   0.488524457777778   1.0
H141   H   0.364477161856755   0.209820791539684   0.483653344444441   1.0
H142   H   0.561423140912446   0.977815348009401   0.515982224444443   1.0
H143   H   0.586798971463885   0.170804283121669   0.517246671111110   1.0
H144   H   0.312637309201740   0.009920768021502   0.546340011111113   1.0
H145   H   0.336603953116501   0.208345395565367   0.542048899999998   1.0
H146   H   0.541294449825550   0.980010063347869   0.572039964444443   1.0
H147   H   0.593947599245126   0.179449059482465   0.569064415555559   1.0
H148   H   0.380332845747844   0.185246618875098   0.427073331111110   1.0
H149   H   0.895867975623347   0.205567428372703   0.904264493333336   1.0
H150   H   0.119643995268490   0.463041136625797   0.567342206666666   1.0
H151   H   0.022471362911403   0.429269284391168   0.895397780000003   1.0
H152   H   0.848289776934941   0.496986021089093   0.485231104444445   1.0
H153   H   0.851360086498090   0.306041879239736   0.479364437777775   1.0
H154   H   0.099709786945255   0.500997113778162   0.454186673333332   1.0
H155   H   0.083751167873231   0.301189438662334   0.447791119999998   1.0
H156   H   0.858898321361480   0.537708312384353   0.429653337777779   1.0
H157   H   0.838506100172530   0.321049001777396   0.423011102222219   1.0
H158   H   0.088184781446500   0.524107324519250   0.393860033333333   1.0
H159   H   0.094176388007597   0.320587985920071   0.396975537777777   1.0
H160   H   0.863538217724717   0.522551256244867   0.359777746666666   1.0
H161   H   0.848381542188058   0.326281993384754   0.363611093333333   1.0
H162   H   0.152993332721643   0.489747367874585   0.339795515555558   1.0
H163   H   0.112953380352962   0.291149950153532   0.338844468888887   1.0
H164   H   0.898514377833706   0.523415691233787   0.306102244444446   1.0
H165   H   0.908435496261731   0.326500957763123   0.304415555555558   1.0
H166   H   0.155731293971066   0.524660458253706   0.283286624444443   1.0
H167   H   0.156590484818516   0.325993779230885   0.288328893333336   1.0
H168   H   0.916214325642073   0.338073438971975   0.252031115555553   1.0
H169   H   0.100282718319590   0.351294094806079   0.240039995555556   1.0
H170   H   0.938497094346630   0.557129946742684   0.217799971111113   1.0
H171   H   0.884984536409213   0.628523606773584   0.250133344444443   1.0
H172   H   0.386393281976943   0.132537004714841   0.255988906666666   1.0
H173   H   0.063084063353038   0.242647524959082   0.513202244444443   1.0
H174   H   0.124398386255898   0.433845163864468   0.514748891111111   1.0
H175   H   0.836787718477630   0.296348420609490   0.539904446666668   1.0
H176   H   0.873356194757761   0.492755745022698   0.539328851111108   1.0
H177   H   0.871855449082020   0.493528062134473   0.872784424444447   1.0
H178   H   0.123733884386162   0.440184641939702   0.845446608888892   1.0
H179   H   0.078263674474805   0.241679319043257   0.852922228888886   1.0
H180   H   0.828573410844918   0.435643283617807   0.824513413333335   1.0
H181   H   0.854865679555900   0.241736927295250   0.822653368888886   1.0
H182   H   0.078973829844379   0.473956494174331   0.795655484444445   1.0
H183   H   0.093637974574286   0.282597499142561   0.791208904444446   1.0
H184   H   0.825297036162191   0.470625393247204   0.766331144444443   1.0
H185   H   0.851680863912236   0.279035999786259   0.760253397777781   1.0
H186   H   0.085217601821995   0.511094199012696   0.740131124444446   1.0
H187   H   0.790011463324582   0.197487646268826   0.871751064444446   1.0
H188   H   0.085194654780551   0.318040843628246   0.732755533333332   1.0
H189   H   0.857374640100630   0.323608004591691   0.704846699999997   1.0
H190   H   0.063393258411260   0.606980898357698   0.681100039999997   1.0
H191   H   0.105048462536196   0.401583205703048   0.675739966666669   1.0
H192   H   0.836466941063485   0.559412388452884   0.648808882222220   1.0
H193   H   0.832709194045485   0.374738463376986   0.655128904444446   1.0
H194   H   0.059876300667924   0.566639169618654   0.622991095555555   1.0
H195   H   0.095551262917290   0.367638321239752   0.630202231111113   1.0
H196   H   0.830406504834386   0.474313739104744   0.594542186666665   1.0
H197   H   0.861567670613290   0.287046739587325   0.602924431111113   1.0
H198   H   0.080131080191251   0.268201107065089   0.566580031111108   1.0
H199   H   0.836294981456831   0.521214152348861   0.717642211111112   1.0
H200   H   0.420739263399511   0.950117823744201   0.264682262222223   1.0
H201   H   0.517408000264318   0.881652076034044   0.815982226666669   1.0
H202   H   0.569305100231425   0.921843882697516   0.224157800000000   1.0
H203   H   0.824666846019426   0.027959354807862   0.666424475555559   1.0
H204   H   0.806325148625056   0.835235546748876   0.669795566666664   1.0
H205   H   0.087211095974872   0.011154100990609   0.692131126666666   1.0
H206   H   0.055408157697293   0.812966914421338   0.696108924444445   1.0
H207   H   0.828080880038172   0.036488718718246   0.724797737777777   1.0
H208   H   0.832502911255517   0.840952422315191   0.726802233333331   1.0
H209   H   0.058329672365623   0.072646564591025   0.748564402222222   1.0
H210   H   0.124707581314127   0.883622766965608   0.744322204444444   1.0
H211   H   0.829661820067450   0.958877805082722   0.782279968888886   1.0
H212   H   0.917635071721989   0.770953462906029   0.778113302222224   1.0
H213   H   0.089914745497317   0.026997960912233   0.815411037777778   1.0
H214   H   0.154585637436448   0.859117855602783   0.803071086666669   1.0
H215   H   0.870767039859494   0.919918904916692   0.844964431111109   1.0
H216   H   0.930225539401832   0.734876300859568   0.835388862222224   1.0
H217   H   0.010556761786830   0.800795367328334   0.884526739999998   1.0
H218   H   0.087325590599050   0.977861510684313   0.872462293333335   1.0
H219   H   0.225546183979752   0.684979175043374   0.878797744444448   1.0
H220   H   0.253579999097468   0.725920649715960   0.841788906666665   1.0
H221   H   0.361956836626490   0.905280691885480   0.895735508888890   1.0
H222   H   0.388925189563125   0.979371416283776   0.861495633333334   1.0
H223   H   0.623825884494174   0.861400297312983   0.877117751111108   1.0
H224   H   0.074654940022015   0.810454074281957   0.638035584444445   1.0
H225   H   0.064802445047938   0.009966942222683   0.634700013333337   1.0
H226   H   0.817827413296413   0.795734946899209   0.609924486666664   1.0
H227   H   0.829180653946231   0.004844522036159   0.606275515555552   1.0
H228   H   0.019446718304422   0.877952065600468   0.281495582222220   1.0
H229   H   0.167015922623264   0.003166436763870   0.294966633333331   1.0
H230   H   0.935529697051741   0.041295215619691   0.321897804444447   1.0
H231   H   0.905731846739286   0.846047133370504   0.325002204444445   1.0
H232   H   0.155124268540142   0.056095026828757   0.356331126666667   1.0
H233   H   0.145580957167958   0.847303772439155   0.355619982222223   1.0
H234   H   0.887321525890961   0.036961387625340   0.383257802222225   1.0
H235   H   0.886290363980521   0.844675738848309   0.378213331111112   1.0
H236   H   0.124948152918400   0.992776745870060   0.414639960000002   1.0
H237   H   0.097040643907505   0.793890883469921   0.410428873333331   1.0
H238   H   0.537467861683211   0.708331656262374   0.893699984444446   1.0
H239   H   0.873138547282267   0.023666871511374   0.437860022222225   1.0
H240   H   0.099732722530369   0.960526210233191   0.469108919999996   1.0
H241   H   0.041660680253642   0.750678827609597   0.463422226666665   1.0
H242   H   0.852734972864120   0.986287322666747   0.493942259999997   1.0
H243   H   0.796759107881812   0.785903438242130   0.488775551111111   1.0
H244   H   0.068250779337319   0.918432316943033   0.522053357777779   1.0
H245   H   0.014921545692090   0.730185227934804   0.526213328888886   1.0
H246   H   0.811297393302013   0.980224417221876   0.550908915555553   1.0
H247   H   0.811457782009086   0.792254338841914   0.556133355555552   1.0
H248   H   0.070404662197269   0.995051926035892   0.577177768888887   1.0
H249   H   0.064195190490288   0.798340112388424   0.579860008888886   1.0
H250   H   0.840843089654271   0.815733009565278   0.433553315555557   1.0
H251   H   0.691498473998834   0.056625073462627   0.235166677777777   1.0
H252   H   0.490749060056302   0.582176557789147   0.845342168888891   1.0
H253   H   0.161940754221710   0.801982526096261   0.305233342222223   1.0
H254   H   0.640265646774736   0.531633972888670   0.454228888888892   1.0
H255   H   0.359402211125591   0.630621386257864   0.416324446666664   1.0
H256   H   0.522253950290796   0.749480234790859   0.420673373333336   1.0
H257   H   0.499948429302506   0.412141087795945   0.391433293333335   1.0
H258   H   0.665183258246408   0.534503838959509   0.388797760000003   1.0
H259   H   0.374077720541031   0.654734531538871   0.360917748888888   1.0
H260   H   0.557940506352416   0.736351904306588   0.362395562222226   1.0
H261   H   0.446836843132779   0.423552189825898   0.336819966666667   1.0
H262   H   0.642155999532626   0.472757670830369   0.333326635555558   1.0
H263   H   0.355060156591392   0.623152334614176   0.306837802222219   1.0
H264   H   0.536734759272186   0.708550620640736   0.304426659999997   1.0
H265   H   0.445450603537552   0.386990924821532   0.281333331111114   1.0
H266   H   0.632292139873023   0.473518565417592   0.278637779999997   1.0
H267   H   0.369792913318918   0.651322516260208   0.248197766666664   1.0
H268   H   0.563955059954957   0.657396867282159   0.241024444444442   1.0
H269   H   0.402363471948547   0.493101567428560   0.206326633333333   1.0
H270   H   0.326006979589543   0.386910240995213   0.233086651111108   1.0
H271   H   0.653497657826527   0.394966935998497   0.206984455555556   1.0
H272   H   0.616264702589334   0.318501871011826   0.242982231111114   1.0
H273   H   0.639520962007801   0.135418754360671   0.193811119999999   1.0
H274   H   0.428953582488560   0.154644499914958   0.195297751111113   1.0
H275   H   0.474423792399918   0.422583983910080   0.447039964444443   1.0
H276   H   0.466346926432827   0.748949957631773   0.476473322222219   1.0
H277   H   0.306920597428231   0.617412152948319   0.474988895555555   1.0
H278   H   0.606377895888279   0.577911979570302   0.506553311111112   1.0
H279   H   0.696103840964696   0.801636484691443   0.812297737777776   1.0
H280   H   0.401779175888684   0.639127663067661   0.791508824444442   1.0
H281   H   0.583511025881570   0.561348800284520   0.788726637777778   1.0
H282   H   0.453252368503001   0.865261675399189   0.759568955555558   1.0
H283   H   0.641686198096941   0.808033571018662   0.754175568888890   1.0
H284   H   0.353845876602819   0.628189448943758   0.738537766666667   1.0
H285   H   0.538922942402777   0.548104826824613   0.734359995555558   1.0
H286   H   0.423740972421378   0.833921748952413   0.705722215555554   1.0
H287   H   0.607305698733342   0.746748418746847   0.699715593333330   1.0
H288   H   0.339216043599883   0.563239037914990   0.680488926666669   1.0
H289   H   0.670246855748381   0.633813987633985   0.846291097777780   1.0
H290   H   0.550161459301691   0.516661359976148   0.673417748888888   1.0
H291   H   0.560770244311293   0.773132145215584   0.642831084444445   1.0
H292   H   0.349251874322476   0.503578984694094   0.623042213333335   1.0
H293   H   0.558455972744277   0.491073049246040   0.618639966666670   1.0
H294   H   0.322524115902795   0.710821190302212   0.593813324444447   1.0
H295   H   0.506008865531612   0.773961840054135   0.592895593333331   1.0
H296   H   0.408698802965233   0.460943380194038   0.564404466666666   1.0
H297   H   0.593489380165352   0.555020744733845   0.559917788888889   1.0
H298   H   0.298351200654395   0.648705905193921   0.538295575555559   1.0
H299   H   0.443010472660823   0.785684024339588   0.535037740000000   1.0
H300   H   0.460126319167045   0.442201726071403   0.506357744444443   1.0
H301   H   0.371018764207072   0.771264764160485   0.641726684444443   1.0
H302   H   0.089582385727255   0.625734205530108   0.237424468888889   1.0


# Number_of_total_atoms: 302
# Number_of_atom_type: 2
# Name_of_each_atom: C H
# Number_of_each_atom: 100 202
# Created_by: Lihua Chen (lihua.chen@mse.gatech.edu)
# Tool: VASP
# K-points: 2 2 1
# Pseudopotential: PBE-HSE06
# Material_class: MC_Pol
# Geometry_class: GC_PD
# Bandgap_(eV): 6.23
