#======================================================================

# Note: Disordered slab of polyethylene
# Common_name: Disordered slab-2

#----------------------------------------------------------------------

data_1
_audit_creation_method   'vasp2cif'
_cell_length_a    7.7035675
_cell_length_b    9.6789685
_cell_length_c    45.0
_cell_angle_alpha    90.0
_cell_angle_beta    90.0
_cell_angle_gamma    90.0

_symmetry_space_group_name_H-M    'P 1'
loop_
_atom_site_label
_atom_site_type_symbol
_atom_site_fract_x
_atom_site_fract_y
_atom_site_fract_z
_atom_site_occupancy
C1   C   0.038947357831290   0.259287340381363   0.289291126666669   1.0
C2   C   0.503965701605132   0.721123785039694   0.876439922222225   1.0
C3   C   0.538936460282848   0.756592430278083   0.843755595555557   1.0
C4   C   0.435594651439089   0.685252359277747   0.819751146666668   1.0
C5   C   0.520607406892978   0.708591499187129   0.788915506666669   1.0
C6   C   0.431025573541092   0.623809871888724   0.764642164444446   1.0
C7   C   0.523307402706607   0.652015232821554   0.736117808888892   1.0
C8   C   0.423210791623490   0.582503889748168   0.710673355555556   1.0
C9   C   0.543908130875728   0.590169954577291   0.681455571111108   1.0
C10   C   0.458908745850543   0.515647344032580   0.654202186666666   1.0
C11   C   0.555305577578181   0.499643613883031   0.626604462222225   1.0
C12   C   0.457870084217475   0.410088595701083   0.603126695555552   1.0
C13   C   0.551541165829988   0.393826511575071   0.573893315555559   1.0
C14   C   0.438398638033611   0.336072413088232   0.549362182222225   1.0
C15   C   0.539909996245242   0.329046984707098   0.519537777777778   1.0
C16   C   0.445408494181429   0.244275420464483   0.496026695555557   1.0
C17   C   0.553124769790102   0.248294485099315   0.467764451111108   1.0
C18   C   0.464542473341084   0.170868961914692   0.441344453333336   1.0
C19   C   0.558122441323455   0.201016750906874   0.411279975555559   1.0
C20   C   0.459272213815225   0.127372643066252   0.388120015555557   1.0
C21   C   0.510819565091111   0.151765655606795   0.355037773333336   1.0
C22   C   0.394769553197271   0.070920336190781   0.333286626666670   1.0
C23   C   0.529161742270709   0.570343244737288   0.885182191111113   1.0
C24   C   0.646120670715227   0.561086101272053   0.913048808888888   1.0
C25   C   0.828893003144323   0.500129182154069   0.906639946666665   1.0
C26   C   0.938569474467513   0.604014301730601   0.887828911111114   1.0
C27   C   0.914944160611299   0.755476670886985   0.290588886666669   1.0
C28   C   0.004331149172117   0.838894619814084   0.315215555555554   1.0
C29   C   0.915839706733280   0.819574358569305   0.346333313333332   1.0
C30   C   0.017853182957119   0.886213732382743   0.371184455555557   1.0
C31   C   0.950875591081662   0.853059383342348   0.401717800000000   1.0
C32   C   0.038531900966660   0.955528814873198   0.424206628888889   1.0
C33   C   0.971190841126528   0.924482231758475   0.456320022222222   1.0
C34   C   0.078370586095339   0.004418497694253   0.479995557777777   1.0
C35   C   0.977369770564096   0.017050918184104   0.509031084444445   1.0
C36   C   0.083277377656522   0.099270350967664   0.533051133333331   1.0
C37   C   0.472305006738758   0.088680482842776   0.301619975555553   1.0
C38   C   0.971865775174940   0.114013667882070   0.562795597777779   1.0
C39   C   0.945553329674858   0.178731307990105   0.616919962222219   1.0
C40   C   0.044814808204123   0.257231408491513   0.642344413333333   1.0
C41   C   0.954224532984227   0.247468012732966   0.671542188888886   1.0
C42   C   0.026952966920845   0.339265005356715   0.696464453333334   1.0
C43   C   0.941542084235650   0.336165429198367   0.725593313333334   1.0
C44   C   0.039531424888537   0.407753615480822   0.749908871111110   1.0
C45   C   0.931157285244794   0.428499607163715   0.779080031111114   1.0
C46   C   0.043542683308736   0.492897027198715   0.804959953333331   1.0
C47   C   0.943424523767725   0.473876487974934   0.836035495555556   1.0
C48   C   0.052759075584135   0.528717032192013   0.863144431111110   1.0
C49   C   0.046242679122365   0.199270800395723   0.586997815555556   1.0
C50   C   0.385540024151148   0.996380378756271   0.278460015555552   1.0
C51   C   0.990956670399783   0.781285371473210   0.258962251111114   1.0
C52   C   0.452482969740970   0.130141347190047   0.231015524444445   1.0
C53   C   0.176234400490422   0.037549021881823   0.844017706666669   1.0
C54   C   0.993725751088704   0.053469984947263   0.828093295555554   1.0
C55   C   0.932416545970419   0.931952015341302   0.808684455555557   1.0
C56   C   0.024733294022539   0.909945414121353   0.778628879999999   1.0
C57   C   0.925056358628652   0.832282437947804   0.755213337777775   1.0
C58   C   0.013374725411310   0.843533440572720   0.724388886666667   1.0
C59   C   0.919993821044599   0.777596786269115   0.697808922222222   1.0
C60   C   0.022123918561107   0.794199970792342   0.669886695555554   1.0
C61   C   0.013309846379613   0.740630078504751   0.613193342222225   1.0
C62   C   0.923550497869982   0.667729675946354   0.588035584444441   1.0
C63   C   0.024564437190954   0.666810187469871   0.559064484444441   1.0
C64   C   0.951187057165399   0.572678421259454   0.536017777777779   1.0
C65   C   0.028861160754417   0.585076322957349   0.506433360000003   1.0
C66   C   0.935129665573776   0.498362516625612   0.482917786666668   1.0
C67   C   0.032768428393730   0.507836635691085   0.453253344444441   1.0
C68   C   0.932896881866746   0.440288208397412   0.427097744444445   1.0
C69   C   0.029574972894053   0.447344569826839   0.396700035555554   1.0
C70   C   0.944268080989751   0.359711285350294   0.371100024444445   1.0
C71   C   0.036753685873464   0.371974988863741   0.340544468888886   1.0
C72   C   0.941996419191497   0.271644060004945   0.318451097777775   1.0
C73   C   0.484585122412440   0.996532120132429   0.248826684444445   1.0
C74   C   0.259468694212131   0.182864072757340   0.851191033333336   1.0
C75   C   0.459674546890127   0.191408247686724   0.848808966666667   1.0
C76   C   0.911737840941875   0.746446938018238   0.643773311111111   1.0
C77   C   0.472175261656368   0.146041822535118   0.794028897777778   1.0
C78   C   0.525462209554213   0.237239546755419   0.818888857777779   1.0
C79   C   0.536963387417586   0.401616721864528   0.229557800000002   1.0
C80   C   0.438255782142491   0.464061268512239   0.253166706666669   1.0
C81   C   0.563457566900013   0.520431004605499   0.276579964444444   1.0
C82   C   0.465814598236463   0.552128483525905   0.304282211111108   1.0
C83   C   0.562042573132516   0.614149534632745   0.330597773333331   1.0
C84   C   0.455001478211230   0.598538356644099   0.359462228888887   1.0
C85   C   0.442461638714789   0.633015387951723   0.416353353333335   1.0
C86   C   0.517323097383127   0.708953293938293   0.442555577777774   1.0
C87   C   0.432193720636576   0.692629137082115   0.472251128888892   1.0
C88   C   0.504407159410235   0.793838165709495   0.495448897777777   1.0
C89   C   0.529629201016284   0.676614775634405   0.387702264444442   1.0
C90   C   0.589886867350742   0.253501630881431   0.234646691111109   1.0
C91   C   0.428948509894930   0.773123107074895   0.526666684444443   1.0
C92   C   0.453275018360003   0.095602646087755   0.739913346666668   1.0
C93   C   0.531381661807984   0.096150287088960   0.709382204444445   1.0
C94   C   0.436464443259567   0.995974240436880   0.688231151111111   1.0
C95   C   0.522879068691225   0.013589733244821   0.657882182222224   1.0
C96   C   0.550152173002964   0.177450210732680   0.762691073333336   1.0
C97   C   0.505172960449819   0.948844497220961   0.603926680000001   1.0
C98   C   0.408594394739836   0.862161634269192   0.581175571111110   1.0
C99   C   0.497579037244755   0.866263259354547   0.550311111111114   1.0
C100   C   0.426845458289293   0.932696123559033   0.633748882222221   1.0
H101   H   0.434685981527387   0.509138406639096   0.767951117777777   1.0
H102   H   0.422198390550868   0.412413326895319   0.660575528888891   1.0
H103   H   0.340288223605491   0.576160093919100   0.650248888888889   1.0
H104   H   0.655233318848701   0.530359727898691   0.687713368888886   1.0
H105   H   0.578411690427842   0.697505617463264   0.677640024444443   1.0
H106   H   0.401519672541326   0.472729588901956   0.716002231111112   1.0
H107   H   0.297996129715223   0.634792478144753   0.706871117777780   1.0
H108   H   0.652026999179277   0.598796896590791   0.737466684444442   1.0
H109   H   0.554760375631162   0.762522783290386   0.733115555555557   1.0
H110   H   0.299865458438575   0.655961975700201   0.763591173333332   1.0
H111   H   0.568143759368631   0.498579481894169   0.929913333333332   1.0
H112   H   0.493386304462185   0.823190425715303   0.785811191111108   1.0
H113   H   0.431168182793229   0.573422126541686   0.825082228888888   1.0
H114   H   0.311846972198268   0.730969751580453   0.821408928888886   1.0
H115   H   0.677703375741174   0.729533958086549   0.842006599999998   1.0
H116   H   0.529161742270709   0.868453399760526   0.842524382222223   1.0
H117   H   0.376063921033989   0.762471155888150   0.879408942222220   1.0
H118   H   0.578255944404980   0.787432503783847   0.890340000000002   1.0
H119   H   0.411787603600537   0.511721305839565   0.889726595555558   1.0
H120   H   0.590406081338287   0.511648984083379   0.867737833333337   1.0
H121   H   0.573271163003376   0.604014301730601   0.615837775555555   1.0
H122   H   0.659932388468071   0.687215089087232   0.791411166666670   1.0
H123   H   0.687633826795185   0.454390888863827   0.631208886666670   1.0
H124   H   0.603374254850110   0.063450542276279   0.301902262222221   1.0
H125   H   0.424963265396194   0.313476988792765   0.614977773333337   1.0
H126   H   0.651598652182898   0.658338137994768   0.925319926666667   1.0
H127   H   0.479353727996802   0.195923315588843   0.294282193333331   1.0
H128   H   0.399676344758454   0.955828733196107   0.337428877777775   1.0
H129   H   0.253406386067233   0.099063820695356   0.332873368888890   1.0
H130   H   0.647327929559907   0.132889563593473   0.353711106666665   1.0
H131   H   0.494113240391549   0.255857295123960   0.347937775555557   1.0
H132   H   0.452106624625536   0.017960157634569   0.391759999999998   1.0
H133   H   0.336017488001502   0.169629057063261   0.391177793333334   1.0
H134   H   0.691657949385139   0.165475794243982   0.410219997777780   1.0
H135   H   0.545920315490193   0.310439485364583   0.406580013333333   1.0
H136   H   0.337289625877879   0.460693099683091   0.596539986666670   1.0
H137   H   0.444421834429306   0.065578795922313   0.449599966666668   1.0
H138   H   0.676976439811817   0.196739352958943   0.471422237777780   1.0
H139   H   0.575140491726721   0.355351306288476   0.460664453333337   1.0
H140   H   0.445122769418198   0.135854941567381   0.505253346666670   1.0
H141   H   0.316481175766938   0.274557614274705   0.491182199999997   1.0
H142   H   0.664177123131587   0.277657190433054   0.525682237777779   1.0
H143   H   0.555889644635421   0.438294142604143   0.512384457777777   1.0
H144   H   0.390537695684500   0.230358772218338   0.556411148888891   1.0
H145   H   0.311522382324810   0.399281762307624   0.547657775555557   1.0
H146   H   0.673912963052508   0.335204562345666   0.576477813333334   1.0
H147   H   0.609059971240598   0.499922651881761   0.567791071111110   1.0
H148   H   0.339600412406327   0.220946539912802   0.441188897777778   1.0
H149   H   0.889890742178864   0.490872028357153   0.928484428888886   1.0
H150   H   0.031262567635061   0.301699049852267   0.581291113333336   1.0
H151   H   0.017359982891044   0.657904207457641   0.902728951111108   1.0
H152   H   0.854530514596000   0.072356325986597   0.505193328888886   1.0
H153   H   0.934233885793823   0.916733389513560   0.517515564444444   1.0
H154   H   0.146819366481829   0.098516200357508   0.472797817777774   1.0
H155   H   0.182400452777237   0.935072285853600   0.483431075555558   1.0
H156   H   0.840549927030558   0.974311890776377   0.457611084444444   1.0
H157   H   0.957353109452214   0.814202071222773   0.459848871111113   1.0
H158   H   0.015867245922102   0.058501543837032   0.419402231111114   1.0
H159   H   0.175780065534575   0.948079901282867   0.426415591111109   1.0
H160   H   0.813705403373177   0.885036096563390   0.403857760000001   1.0
H161   H   0.980329490200482   0.745382806029383   0.406368848888889   1.0
H162   H   0.028004492723660   0.999975958181906   0.370102184444441   1.0
H163   H   0.151505558950447   0.843874354999706   0.370677780000001   1.0
H164   H   0.778747534827211   0.873123360201035   0.347002242222224   1.0
H165   H   0.887021876552652   0.716061282769957   0.354193368888886   1.0
H166   H   0.984911691888207   0.948585946942593   0.308046640000001   1.0
H167   H   0.137460118315310   0.808736385493972   0.316495513333336   1.0
H168   H   0.786860646057818   0.783082970049961   0.290355597777776   1.0
H169   H   0.926315359734303   0.646590925468971   0.295786624444446   1.0
H170   H   0.928509278331113   0.726031394771042   0.241622248888888   1.0
H171   H   0.983003498054636   0.894634154455609   0.253551144444444   1.0
H172   H   0.251186713168934   0.039119395832316   0.276659986666665   1.0
H173   H   0.207414772441467   0.056228646678619   0.536879984444447   1.0
H174   H   0.116924269177886   0.200810034664336   0.525311111111108   1.0
H175   H   0.962791992151686   0.009994350121090   0.571815575555554   1.0
H176   H   0.845080386457312   0.163647066317033   0.559102206666665   1.0
H177   H   0.857230510409622   0.691306465146567   0.877537706666665   1.0
H178   H   0.143859893484418   0.602898532007828   0.853646682222220   1.0
H179   H   0.132034112766583   0.450227180716624   0.871879917777775   1.0
H180   H   0.816561145209668   0.528045442032379   0.837046644444442   1.0
H181   H   0.911010905012517   0.367677082532090   0.839264424444444   1.0
H182   H   0.089780896967540   0.603001786812307   0.802497693333336   1.0
H183   H   0.177727137459364   0.431733577808423   0.805162217777777   1.0
H184   H   0.830204252769903   0.502071599881745   0.773880004444443   1.0
H185   H   0.864564956430897   0.335173618965697   0.786486646666667   1.0
H186   H   0.071555587719587   0.506937841568551   0.740653313333333   1.0
H187   H   0.823467010576593   0.405036528427587   0.895862155555555   1.0
H188   H   0.159307217078322   0.360145205555739   0.756719971111110   1.0
H189   H   0.931702487191814   0.228623050069849   0.733342233333332   1.0
H190   H   0.031158823493144   0.445567665604038   0.686151124444443   1.0
H191   H   0.155633685302298   0.318405292878062   0.699337768888888   1.0
H192   H   0.812147553714560   0.271127569017295   0.668424479999999   1.0
H193   H   0.973553369915955   0.139346863253039   0.678813342222220   1.0
H194   H   0.056705467953648   0.360506814336674   0.636331093333332   1.0
H195   H   0.188125047258950   0.233726941047486   0.644920011111111   1.0
H196   H   0.814743818367269   0.226908032606985   0.612753295555557   1.0
H197   H   0.910115112251567   0.077687420927134   0.625973342222224   1.0
H198   H   0.183945191627124   0.172997225892409   0.589919960000003   1.0
H199   H   0.802736303667096   0.364722149886120   0.723035515555559   1.0
H200   H   0.368158518764197   0.887618778798590   0.287331137777777   1.0
H201   H   0.500383023839277   0.045039313848371   0.801764424444443   1.0
H202   H   0.429935169647052   0.911743405301920   0.237142182222222   1.0
H203   H   0.802476826483314   0.817611236156004   0.641240013333331   1.0
H204   H   0.842730721837640   0.656065230504673   0.647937775555555   1.0
H205   H   0.066986263182606   0.898611644412313   0.667602199999997   1.0
H206   H   0.134409518706754   0.725204922404700   0.671102226666669   1.0
H207   H   0.794675168355440   0.836146403410652   0.694551086666664   1.0
H208   H   0.874131939520225   0.672368496704998   0.703282251111112   1.0
H209   H   0.011894852612116   0.958525322197296   0.718397775555559   1.0
H210   H   0.144210237659372   0.804045937333093   0.726091088888886   1.0
H211   H   0.798283834080770   0.880128486832042   0.753382195555552   1.0
H212   H   0.905610653765287   0.727674100809402   0.760759988888886   1.0
H213   H   0.055446207228016   0.011947027206460   0.769775559999999   1.0
H214   H   0.148364105331716   0.855476924013132   0.781686739999998   1.0
H215   H   0.792909830412988   0.950631836440010   0.803517828888886   1.0
H216   H   0.944436937821344   0.832592212692916   0.821171062222220   1.0
H217   H   0.898237602253758   0.080724914023641   0.844517855555559   1.0
H218   H   0.983648225318987   0.145039763276429   0.813826666666664   1.0
H219   H   0.163551951741837   0.970602807520244   0.864068942222225   1.0
H220   H   0.266997504727520   0.972958471762773   0.832080077777775   1.0
H221   H   0.215515019502327   0.202649218250890   0.874199931111114   1.0
H222   H   0.204104695649129   0.267594062321827   0.839864435555555   1.0
H223   H   0.509586551944928   0.256797477954393   0.867419942222220   1.0
H224   H   0.133929442430407   0.684032942146679   0.616428884444446   1.0
H225   H   0.058821396710030   0.847490432477386   0.607986704444443   1.0
H226   H   0.909712779176658   0.560476387540675   0.597795528888888   1.0
H227   H   0.793584764461400   0.705471218343156   0.585702259999998   1.0
H228   H   0.032586694411386   0.355000142835472   0.276302253333334   1.0
H229   H   0.171055007955729   0.235018276999249   0.292877791111110   1.0
H230   H   0.806786427197530   0.287306875727509   0.312393357777779   1.0
H231   H   0.952485195982248   0.170166438706772   0.328413306666668   1.0
H232   H   0.061884860488341   0.484011741540435   0.334366693333337   1.0
H233   H   0.166057336422376   0.324573305512878   0.344551086666669   1.0
H234   H   0.818274740891155   0.422496932395227   0.368262228888888   1.0
H235   H   0.894564057496737   0.267966116430692   0.380184428888889   1.0
H236   H   0.028848036964689   0.554349753282075   0.389466688888888   1.0
H237   H   0.153452877514219   0.418622511272766   0.400282202222222   1.0
H238   H   0.518984691183661   0.090343862571721   0.852553304444442   1.0
H239   H   0.810291348780936   0.485788831733465   0.426097784444444   1.0
H240   H   0.069128192879468   0.615627109438364   0.448957739999997   1.0
H241   H   0.163590816852064   0.467884062232457   0.453748915555558   1.0
H242   H   0.794363702271710   0.522373236362945   0.482619984444447   1.0
H243   H   0.932468547851371   0.395603601768101   0.490708924444448   1.0
H244   H   0.015659510999285   0.694540239489363   0.497595553333333   1.0
H245   H   0.166200205294494   0.565487262408176   0.505711111111111   1.0
H246   H   0.813484557641637   0.600739138679913   0.534513346666664   1.0
H247   H   0.960364584330570   0.465135845829025   0.544731140000003   1.0
H248   H   0.023149443423456   0.773319377989502   0.551148902222224   1.0
H249   H   0.158736014190829   0.647748073567961   0.563191137777778   1.0
H250   H   0.919072027343177   0.332404718539998   0.432379997777780   1.0
H251   H   0.619911969357055   0.979043727645148   0.252568902222222   1.0
H252   H   0.662852996355262   0.242705046513997   0.821824475555559   1.0
H253   H   0.988715215385596   0.172377273466694   0.275266691111114   1.0
H254   H   0.497046712448487   0.813313340156029   0.435628848888889   1.0
H255   H   0.451950891583671   0.515378761693462   0.416948871111110   1.0
H256   H   0.307757983557615   0.662512281138220   0.417168851111114   1.0
H257   H   0.661515992428185   0.649773072409523   0.388948906666670   1.0
H258   H   0.541298989072274   0.789219843002897   0.384337786666670   1.0
H259   H   0.455429812226605   0.492452847635569   0.365022193333331   1.0
H260   H   0.313131987225397   0.627436188060742   0.356511095555554   1.0
H261   H   0.678897510796133   0.557097969685508   0.334082199999997   1.0
H262   H   0.581280543073063   0.721981397087923   0.325991144444444   1.0
H263   H   0.416188071305925   0.451353385435645   0.310722182222221   1.0
H264   H   0.359811658689303   0.621691856937026   0.301068877777780   1.0
H265   H   0.668811313719260   0.448925389105256   0.281975555555554   1.0
H266   H   0.618250375556521   0.607557840486827   0.265324488888886   1.0
H267   H   0.366496924963663   0.388330078768206   0.265715537777780   1.0
H268   H   0.342352150480927   0.545516291327942   0.245200008888887   1.0
H269   H   0.652637067176990   0.454669730560646   0.222248924444443   1.0
H270   H   0.449367504081714   0.395345258123321   0.209908888888890   1.0
H271   H   0.692917210110771   0.238262496669968   0.218753306666663   1.0
H272   H   0.658050182593975   0.259266852661007   0.256057740000003   1.0
H273   H   0.435010584381850   0.103795657564127   0.208442264444443   1.0
H274   H   0.334940220878181   0.184620282626192   0.237099966666669   1.0
H275   H   0.652909668150500   0.686884805958407   0.447142197777779   1.0
H276   H   0.295296133901601   0.714377198355386   0.471713342222223   1.0
H277   H   0.446472897134996   0.586822283800181   0.479702251111114   1.0
H278   H   0.505094970609399   0.899417618726623   0.487215595555554   1.0
H279   H   0.330409761451435   0.152984876435951   0.793900044444442   1.0
H280   H   0.687478093753313   0.147209405630363   0.761899991111108   1.0
H281   H   0.526617479498945   0.286924582924307   0.757108899999999   1.0
H282   H   0.447693033130427   0.988383638194506   0.748108928888890   1.0
H283   H   0.326956828767969   0.125326949870740   0.737193297777779   1.0
H284   H   0.670486031309522   0.069122551643801   0.712257808888886   1.0
H285   H   0.533860811890072   0.195582204859953   0.699042257777776   1.0
H286   H   0.429805190906677   0.892743550100406   0.698833295555559   1.0
H287   H   0.303954460060225   0.031597964183888   0.687371151111108   1.0
H288   H   0.654090926054714   0.981657942166045   0.658768886666664   1.0
H289   H   0.474849269510521   0.344038220601711   0.814713373333333   1.0
H290   H   0.524112081837409   0.120822327296551   0.649615564444446   1.0
H291   H   0.295374123742022   0.976182007411225   0.635475582222220   1.0
H292   H   0.648872668409801   0.924327339220085   0.602646637777781   1.0
H293   H   0.498163117282999   0.051073128298746   0.595728895555553   1.0
H294   H   0.402077751639098   0.749494680140764   0.587057748888888   1.0
H295   H   0.277784870451256   0.904397353912245   0.577828895555555   1.0
H296   H   0.633555089898287   0.853762102852180   0.553722213333330   1.0
H297   H   0.487596584309799   0.972875704678657   0.542035591111109   1.0
H298   H   0.443889509633038   0.661076105372182   0.534271071111114   1.0
H299   H   0.294491208131817   0.793466121932312   0.524480015555554   1.0
H300   H   0.642317160198829   0.769279619000720   0.496335517777780   1.0
H301   H   0.413176596427561   0.826868379621239   0.640604486666668   1.0
H302   H   0.128659169923544   0.763039480911630   0.259773340000002   1.0


# Number_of_total_atoms: 302
# Number_of_atom_type: 2
# Name_of_each_atom: C H
# Number_of_each_atom: 100 202
# Created_by: Lihua Chen (lihua.chen@mse.gatech.edu)
# Tool: VASP
# K-points: 2 2 1
# Pseudopotential: PBE-HSE06
# Material_class: MC_Pol
# Geometry_class: GC_PD
# Bandgap_(eV): 6.40
