#======================================================================

# Note: Disordered slab of polyethylene
# Common_name: Disordered slab-3

#----------------------------------------------------------------------

data_1
_audit_creation_method   'vasp2cif'
_cell_length_a    7.5993233
_cell_length_b    9.9468728
_cell_length_c    45.0
_cell_angle_alpha    90.0
_cell_angle_beta    90.0
_cell_angle_gamma    90.0

_symmetry_space_group_name_H-M    'P 1'
loop_
_atom_site_label
_atom_site_type_symbol
_atom_site_fract_x
_atom_site_fract_y
_atom_site_fract_z
_atom_site_occupancy
C1   C   0.027912011586608   0.272767768780554   0.289984468888889   1.0
C2   C   0.460858468806030   0.730831251808105   0.885273404444447   1.0
C3   C   0.537115034966334   0.735727484119430   0.852771166666663   1.0
C4   C   0.436106159610290   0.666670493665102   0.827377828888892   1.0
C5   C   0.536483544528231   0.671043626897493   0.797517733333336   1.0
C6   C   0.437000936649191   0.590525918859647   0.771993340000002   1.0
C7   C   0.520389861555174   0.615830484933916   0.741122182222220   1.0
C8   C   0.458371168390741   0.516894636473083   0.716506704444441   1.0
C9   C   0.512626012371392   0.554595118578376   0.685182191111110   1.0
C10   C   0.437185163578974   0.463883020601209   0.658346642222220   1.0
C11   C   0.532404220781082   0.487548870636004   0.628584459999999   1.0
C12   C   0.450686378877975   0.404115522619328   0.603935579999998   1.0
C13   C   0.565841263787263   0.403311310063202   0.576113297777781   1.0
C14   C   0.475635968797377   0.310075916523232   0.551824442222220   1.0
C15   C   0.543299914612135   0.333972834155475   0.519900004444445   1.0
C16   C   0.458121185606089   0.254782236684477   0.495686679999999   1.0
C17   C   0.539246935315937   0.266051979673449   0.466033342222225   1.0
C18   C   0.426052540757148   0.216860659965413   0.440017784444443   1.0
C19   C   0.507967913406183   0.240084129757847   0.409486644444442   1.0
C20   C   0.410077565722197   0.171147951142998   0.383479986666664   1.0
C21   C   0.506112353451257   0.179271016715930   0.352066635555559   1.0
C22   C   0.407037834539821   0.085905049474441   0.331253306666667   1.0
C23   C   0.444606916513209   0.589520738618475   0.897568935555555   1.0
C24   C   0.605529192316375   0.536317937030418   0.914957851111112   1.0
C25   C   0.752529096899984   0.472891027620257   0.896897719999998   1.0
C26   C   0.903397753850001   0.570952088580043   0.885797799999999   1.0
C27   C   0.893278352823863   0.801315665763816   0.288762239999997   1.0
C28   C   0.989010679411415   0.882316208969719   0.311566671111109   1.0
C29   C   0.915596313687558   0.862571340009495   0.342935519999997   1.0
C30   C   0.015608271331210   0.947824224715127   0.366148886666665   1.0
C31   C   0.965153147254568   0.912003881260048   0.398944431111111   1.0
C32   C   0.047084587123699   0.012917285923273   0.421768866666668   1.0
C33   C   0.947651667879427   0.999810151387479   0.450728862222221   1.0
C34   C   0.033307031430020   0.078103542250986   0.475775571111115   1.0
C35   C   0.968798261287290   0.043157986296961   0.507895577777781   1.0
C36   C   0.049124374008407   0.128179612390341   0.532115599999997   1.0
C37   C   0.489400470697177   0.098351192346605   0.299946679999998   1.0
C38   C   0.953428432239484   0.097114582585192   0.561131117777776   1.0
C39   C   0.987694746451965   0.142907819229379   0.618757799999997   1.0
C40   C   0.081666639975694   0.215634204149069   0.643342253333330   1.0
C41   C   0.981351997486406   0.218660270793855   0.672057766666668   1.0
C42   C   0.056124971022094   0.303490912239269   0.697053357777776   1.0
C43   C   0.962403060283009   0.298484424169978   0.727822197777776   1.0
C44   C   0.044058159757462   0.378097254847774   0.752415551111113   1.0
C45   C   0.935426987295038   0.386692991590280   0.783448962222224   1.0
C46   C   0.051032399161123   0.460836816974279   0.807104493333334   1.0
C47   C   0.938637641591058   0.462988297186229   0.835984464444444   1.0
C48   C   0.028372578911075   0.517357143644183   0.863513355555554   1.0
C49   C   0.057625130911326   0.164422189052225   0.587442186666664   1.0
C50   C   0.390746870843096   0.015239613801036   0.277600013333334   1.0
C51   C   0.949086071913797   0.825554459689080   0.257422215555557   1.0
C52   C   0.447054568661393   0.178436503179171   0.232315573333331   1.0
C53   C   0.208638603387229   0.006241770780463   0.842126635555559   1.0
C54   C   0.039097099606224   0.025232664079105   0.824199931111110   1.0
C55   C   0.981694093735953   0.901136063587742   0.807413397777779   1.0
C56   C   0.050137622122222   0.910807344394712   0.776448906666666   1.0
C57   C   0.966048174315731   0.809901228454436   0.754866706666668   1.0
C58   C   0.060349123454188   0.831898433445332   0.724442206666666   1.0
C59   C   0.987510519522182   0.740010116546379   0.700624424444442   1.0
C60   C   0.057335486700509   0.774955672500404   0.668995582222223   1.0
C61   C   0.054493286264055   0.690798478894791   0.615184444444445   1.0
C62   C   0.952191558951043   0.612844491185207   0.592084419999999   1.0
C63   C   0.039070755155265   0.621289326229245   0.561008877777780   1.0
C64   C   0.914977627021081   0.576823200151914   0.534259966666667   1.0
C65   C   0.999553986602990   0.603685954443890   0.503948891111108   1.0
C66   C   0.887225248069129   0.526334859736018   0.481566704444447   1.0
C67   C   0.965732185653948   0.547436959282315   0.450342220000003   1.0
C68   C   0.908332456391214   0.436658413888637   0.427982246666666   1.0
C69   C   0.984062936235389   0.456162061306344   0.398388928888892   1.0
C70   C   0.900950088542750   0.365450144290577   0.373315515555554   1.0
C71   C   0.002185865680964   0.368637085617500   0.343444486666669   1.0
C72   C   0.926610228571271   0.285344505461055   0.318248917777780   1.0
C73   C   0.469517108187780   0.032762638726012   0.244691128888888   1.0
C74   C   0.294040957567894   0.147703386736787   0.851244440000002   1.0
C75   C   0.497308898543636   0.154499331689450   0.853755526666667   1.0
C76   C   0.983536363033799   0.672109399046505   0.647306653333331   1.0
C77   C   0.508138823360760   0.100904768783209   0.797766622222220   1.0
C78   C   0.582224340948883   0.177360959114708   0.823659939999999   1.0
C79   C   0.553748094912606   0.416310290003906   0.225588904444443   1.0
C80   C   0.443633079803306   0.487609070460820   0.248751153333330   1.0
C81   C   0.537654661961810   0.514140102404845   0.279382239999997   1.0
C82   C   0.418170220498446   0.570248349813021   0.303797744444445   1.0
C83   C   0.519258418706833   0.641345981623488   0.329175568888886   1.0
C84   C   0.410761771380358   0.655591745377500   0.358153364444448   1.0
C85   C   0.410393317520786   0.709980346787987   0.412942251111112   1.0
C86   C   0.513231408380797   0.776725173363026   0.438586680000000   1.0
C87   C   0.419815195913564   0.755985107198718   0.468846640000002   1.0
C88   C   0.519679324605129   0.825675261475141   0.493126677777781   1.0
C89   C   0.520587405460169   0.702189013616419   0.385177782222222   1.0
C90   C   0.604673826681385   0.274788464169362   0.233857813333330   1.0
C91   C   0.427236948847799   0.810323471714646   0.523146651111112   1.0
C92   C   0.509731123033021   0.039237005222382   0.742782253333331   1.0
C93   C   0.531825182381702   0.084728820499244   0.709608884444442   1.0
C94   C   0.491071553700053   0.970212989955996   0.684913297777776   1.0
C95   C   0.537338923322288   0.021834601122073   0.653662193333332   1.0
C96   C   0.582237644765030   0.137468923901388   0.766804504444444   1.0
C97   C   0.541168014262531   0.944215040127986   0.600100028888889   1.0
C98   C   0.443830610549234   0.858710578866557   0.577213373333336   1.0
C99   C   0.524074400150866   0.883361653121774   0.547593351111111   1.0
C100   C   0.445291109012295   0.941772091425555   0.630619982222221   1.0
H101   H   0.433540049546252   0.481004120209519   0.776655577777781   1.0
H102   H   0.470543396936407   0.359659379579078   0.664322239999997   1.0
H103   H   0.296698944233626   0.471694671716321   0.657051086666669   1.0
H104   H   0.652230784812119   0.538961833311070   0.686271075555553   1.0
H105   H   0.480452200263670   0.664418539664041   0.679722257777776   1.0
H106   H   0.521705820832757   0.417999252991350   0.717262184444444   1.0
H107   H   0.319135126149980   0.499542469267325   0.716291131111113   1.0
H108   H   0.666074083201593   0.616966429891413   0.741257815555556   1.0
H109   H   0.493216507843535   0.710855124235628   0.734337784444442   1.0
H110   H   0.305252403197535   0.643698419467071   0.771579997777778   1.0
H111   H   0.565367642668917   0.453467727062922   0.929257711111113   1.0
H112   H   0.541654926037957   0.779188057979390   0.791586644444443   1.0
H113   H   0.409695821205553   0.559440731965530   0.830695597777776   1.0
H114   H   0.296791057698520   0.710654166604002   0.825311108888890   1.0
H115   H   0.660520944016163   0.681086914070121   0.848713344444441   1.0
H116   H   0.561156794052962   0.839257168343401   0.847431097777779   1.0
H117   H   0.340531952364756   0.790437855001024   0.886255560000002   1.0
H118   H   0.556498431906434   0.785914011084969   0.898977831111111   1.0
H119   H   0.353651423147113   0.600408502258119   0.916262140000001   1.0
H120   H   0.395049832923938   0.514310950070659   0.882182142222220   1.0
H121   H   0.542563006892998   0.593049385330431   0.626293351111109   1.0
H122   H   0.669258379887587   0.638541009592480   0.798188951111108   1.0
H123   H   0.668705699098233   0.460474984660507   0.632382202222225   1.0
H124   H   0.628202316382563   0.072383151416190   0.299217817777780   1.0
H125   H   0.451804794250563   0.299670606022026   0.610531108888885   1.0
H126   H   0.655204496958305   0.602881359858145   0.932131111111111   1.0
H127   H   0.489202939951248   0.202182690020926   0.293453302222225   1.0
H128   H   0.418196564949405   0.987736195842373   0.341220008888889   1.0
H129   H   0.264064564801444   0.117060590138443   0.331080035555558   1.0
H130   H   0.639703143041700   0.140485017562504   0.356088851111110   1.0
H131   H   0.508730928713085   0.282378839709303   0.344082217777775   1.0
H132   H   0.409406427016997   0.067336389382604   0.389022233333336   1.0
H133   H   0.273591610452996   0.200664775767514   0.381399960000003   1.0
H134   H   0.627412693443375   0.185755547210775   0.412860022222219   1.0
H135   H   0.548773994126556   0.345835859085277   0.404475573333336   1.0
H136   H   0.314950621984984   0.436266280594239   0.598980035555556   1.0
H137   H   0.400221477614984   0.114356091896539   0.444204457777779   1.0
H138   H   0.660836682655678   0.210899047588100   0.464964466666665   1.0
H139   H   0.588514374694391   0.372487501800563   0.461277771111114   1.0
H140   H   0.461345143718255   0.147200605601391   0.501506635555558   1.0
H141   H   0.316398079813240   0.285053036970574   0.495522224444443   1.0
H142   H   0.675772301989049   0.314459213754098   0.514955562222219   1.0
H143   H   0.546629039983074   0.447093834355655   0.515637800000000   1.0
H144   H   0.505836013056580   0.205359668417593   0.556397755555558   1.0
H145   H   0.340571363768667   0.300173377104009   0.554766675555555   1.0
H146   H   0.694510667811699   0.360835588447458   0.580668895555554   1.0
H147   H   0.572447299353612   0.507555088067477   0.570124477777775   1.0
H148   H   0.295475111580004   0.262251810438350   0.441782208888888   1.0
H149   H   0.817482103965759   0.393981734641265   0.909113395555558   1.0
H150   H   0.068376009216507   0.272536510168301   0.584380002222225   1.0
H151   H   0.986260342417594   0.597824815855695   0.905422295555553   1.0
H152   H   0.832523140580165   0.068251239726315   0.508635542222223   1.0
H153   H   0.976772695010887   0.935639430314218   0.512500000000003   1.0
H154   H   0.020634837315058   0.190209208264932   0.471753353333334   1.0
H155   H   0.174609218165514   0.058730679656428   0.473968928888887   1.0
H156   H   0.822219525783304   0.039769886270186   0.446617804444443   1.0
H157   H   0.910319528055872   0.890188080016465   0.454246691111109   1.0
H158   H   0.044650238791654   0.117734027924840   0.413771142222224   1.0
H159   H   0.185281286821947   0.985323176144362   0.425208875555555   1.0
H160   H   0.822851016221406   0.908525471442644   0.402040015555556   1.0
H161   H   0.025108972531804   0.815712130148079   0.404300011111111   1.0
H162   H   0.974154132908126   0.050909045504234   0.363228862222222   1.0
H163   H   0.153923192082118   0.941711499517716   0.362324440000002   1.0
H164   H   0.775991567564972   0.883723676450352   0.343582237777781   1.0
H165   H   0.914675205356772   0.753722798184370   0.350431146666665   1.0
H166   H   0.981273187837658   0.985574752700167   0.305466631111109   1.0
H167   H   0.132618716195431   0.848536516924192   0.310722182222221   1.0
H168   H   0.757568953540904   0.835839350433837   0.289404466666667   1.0
H169   H   0.912319653514409   0.699756047951070   0.295624457777777   1.0
H170   H   0.930781678942388   0.930944537664139   0.251122199999998   1.0
H171   H   0.087074963635246   0.794811370263027   0.254177773333332   1.0
H172   H   0.250852730531939   0.042876490790149   0.278077782222219   1.0
H173   H   0.192321282080471   0.095696930999260   0.534784444444448   1.0
H174   H   0.054664209377698   0.233971605628653   0.527715555555552   1.0
H175   H   0.953086335989944   0.985624989594719   0.565960015555554   1.0
H176   H   0.814784719055183   0.138011777932860   0.561762237777778   1.0
H177   H   0.860301877142142   0.672712653971004   0.877926635555554   1.0
H178   H   0.107432197285249   0.594698084406993   0.855651177777780   1.0
H179   H   0.113998571425434   0.444490021024500   0.872137791111108   1.0
H180   H   0.810521168378244   0.513446336621499   0.830459933333330   1.0
H181   H   0.881264256779282   0.364324162263337   0.842106631111108   1.0
H182   H   0.097536447751871   0.558154066270959   0.800004408888888   1.0
H183   H   0.165095226307848   0.391840418427790   0.808560011111112   1.0
H184   H   0.814218747608749   0.443394138909667   0.780804444444442   1.0
H185   H   0.920425612106804   0.284600693797955   0.791620042222220   1.0
H186   H   0.063849421961031   0.476771543715728   0.744842191111111   1.0
H187   H   0.693484365903998   0.425519254654589   0.877913411111109   1.0
H188   H   0.170937746522775   0.339964747513406   0.755840046666670   1.0
H189   H   0.935361218281109   0.189796937988390   0.734844462222220   1.0
H190   H   0.058493550340202   0.407795091136585   0.688844471111111   1.0
H191   H   0.192057995479679   0.279453256907033   0.699564446666663   1.0
H192   H   0.845589896142464   0.239531111727899   0.670437791111112   1.0
H193   H   0.984681372879606   0.123323835004705   0.681928846666665   1.0
H194   H   0.094733645560254   0.319827745258792   0.634504446666668   1.0
H195   H   0.216783960224461   0.171529920438914   0.644273293333335   1.0
H196   H   0.854590868636947   0.185252776128792   0.616142188888887   1.0
H197   H   0.967311405214197   0.045188654669438   0.626482222222222   1.0
H198   H   0.188360429408235   0.119724623401240   0.589437782222220   1.0
H199   H   0.825561954970382   0.334063334960916   0.723591106666667   1.0
H200   H   0.392878534329498   0.905981666921484   0.283377753333333   1.0
H201   H   0.548116146078428   0.996572973165996   0.802584500000002   1.0
H202   H   0.411919835020051   0.953454104691076   0.228371091111114   1.0
H203   H   0.840194876299051   0.687903378034555   0.646582199999997   1.0
H204   H   0.994655932061740   0.564829400452368   0.652784475555556   1.0
H205   H   0.025819522640916   0.875791605578790   0.661135526666669   1.0
H206   H   0.202572194816348   0.762861388958349   0.667297786666666   1.0
H207   H   0.851064225679146   0.762509710589647   0.701466708888887   1.0
H208   H   0.022358872401178   0.633102114264496   0.704653337777778   1.0
H209   H   0.043689705897890   0.934463211392426   0.716591135555554   1.0
H210   H   0.202822177601000   0.807247359190114   0.726591153333331   1.0
H211   H   0.822758902756512   0.838614031537631   0.751893362222219   1.0
H212   H   0.967403518679092   0.706401453128059   0.761395602222223   1.0
H213   H   0.019634893017383   0.005842338709712   0.765175544444446   1.0
H214   H   0.190729008726343   0.887483581774568   0.777511088888886   1.0
H215   H   0.835970723866950   0.902905564450364   0.806880017777779   1.0
H216   H   0.016700329093773   0.814767169838547   0.821155635555556   1.0
H217   H   0.937071712687889   0.050315954578210   0.840577697777775   1.0
H218   H   0.063349193210399   0.111772405494115   0.810433282222220   1.0
H219   H   0.166476915122168   0.946738516652189   0.860711162222223   1.0
H220   H   0.298172746512840   0.949000443636919   0.828215535555557   1.0
H221   H   0.237680570847672   0.167589003450409   0.872697788888885   1.0
H222   H   0.251721413142143   0.235208225443479   0.837657844444443   1.0
H223   H   0.525140337166597   0.233850994857399   0.868824428888885   1.0
H224   H   0.189320962301998   0.674240551261498   0.615744442222223   1.0
H225   H   0.052387743524477   0.801436467549884   0.608699968888892   1.0
H226   H   0.904766402029509   0.509706558226021   0.600606706666667   1.0
H227   H   0.838852585729576   0.673154833145148   0.591017744444443   1.0
H228   H   0.956705105571700   0.204776540421832   0.272437795555554   1.0
H229   H   0.040136705330063   0.360644603799500   0.276773326666664   1.0
H230   H   0.802244036649945   0.342126190655620   0.312184482222222   1.0
H231   H   0.909069337792218   0.176435934719102   0.324724408888890   1.0
H232   H   0.013252732647921   0.464918672730988   0.334742228888892   1.0
H233   H   0.133868643277751   0.332686158407498   0.346186660000001   1.0
H234   H   0.765385517944736   0.395429486139605   0.368406677777777   1.0
H235   H   0.894896983788016   0.267047377945758   0.381840006666664   1.0
H236   H   0.955468232283259   0.560848209499575   0.392191146666668   1.0
H237   H   0.123973143766627   0.435964839120089   0.395159997777775   1.0
H238   H   0.534246476919861   0.051090067221928   0.861642286666665   1.0
H239   H   0.772267657042569   0.447707062263831   0.423662228888887   1.0
H240   H   0.912109082133668   0.645236661717441   0.446146646666669   1.0
H241   H   0.105682054611364   0.554876614085181   0.450391133333334   1.0
H242   H   0.761490421127363   0.573052939814410   0.478297764444441   1.0
H243   H   0.875171490598383   0.421668848524938   0.486748928888886   1.0
H244   H   0.004449290899359   0.715137756662578   0.503693306666669   1.0
H245   H   0.131289479419834   0.563361713040102   0.503815544444443   1.0
H246   H   0.797506614832400   0.628336656722908   0.537644451111113   1.0
H247   H   0.895962933962821   0.467693353834782   0.536464437777781   1.0
H248   H   0.083074686400039   0.726498382486604   0.556384446666669   1.0
H249   H   0.157305019514041   0.559843039311815   0.562017737777779   1.0
H250   H   0.926492020677685   0.334354994466203   0.435624439999998   1.0
H251   H   0.611490183606215   0.013741635461550   0.248313311111111   1.0
H252   H   0.725592422156851   0.148095329016371   0.821126644444448   1.0
H253   H   0.147146233402125   0.212507663715172   0.292533366666667   1.0
H254   H   0.542168208582467   0.878777207244468   0.432939995555557   1.0
H255   H   0.370350238948248   0.605465428290188   0.417531077777781   1.0
H256   H   0.295225128795352   0.767546308624759   0.407415517777778   1.0
H257   H   0.640848166046574   0.637837270825457   0.389151086666665   1.0
H258   H   0.566933571572093   0.803054865645812   0.379597813333333   1.0
H259   H   0.342176690916674   0.555218319470214   0.362593333333336   1.0
H260   H   0.291330031977978   0.725965310423994   0.355711111111113   1.0
H261   H   0.632478920853387   0.577476691970965   0.335395557777780   1.0
H262   H   0.566578171506400   0.741658805569529   0.325117746666663   1.0
H263   H   0.341703069798335   0.484492503010593   0.312435573333332   1.0
H264   H   0.312845079245413   0.633051877369944   0.297159999999998   1.0
H265   H   0.608095052358152   0.425137285358673   0.289108868888888   1.0
H266   H   0.644782674267852   0.581819534276143   0.273524475555554   1.0
H267   H   0.319451114811763   0.429027965452619   0.250513373333334   1.0
H268   H   0.400392400728627   0.582664010743159   0.240519968888890   1.0
H269   H   0.659678619015985   0.478772112175797   0.218302240000000   1.0
H270   H   0.457647564487751   0.421749185331897   0.207435524444442   1.0
H271   H   0.699195374409193   0.240727467631835   0.217484453333334   1.0
H272   H   0.674982692208921   0.267761079643044   0.253973304444443   1.0
H273   H   0.391075926457823   0.167890625885960   0.209368897777779   1.0
H274   H   0.344650687515824   0.214226736668437   0.247571139999998   1.0
H275   H   0.640571825651897   0.735134202178600   0.439275531111115   1.0
H276   H   0.284290023560388   0.787984943368329   0.467066702222219   1.0
H277   H   0.419367932405244   0.645136187928330   0.474631077777779   1.0
H278   H   0.531956707250501   0.934403001514205   0.487384457777779   1.0
H279   H   0.366165747942318   0.111712195615894   0.799279955555555   1.0
H280   H   0.720197152291178   0.132834241129537   0.767033386666668   1.0
H281   H   0.538115229286269   0.237982896493861   0.760024515555557   1.0
H282   H   0.580763829326749   0.944003727483071   0.740835571111113   1.0
H283   H   0.379245794161697   0.012877022012383   0.747560035555558   1.0
H284   H   0.668666300853396   0.107198123615291   0.704042222222220   1.0
H285   H   0.456463156397099   0.170454185359645   0.702444457777780   1.0
H286   H   0.550076873292127   0.869849929115411   0.687848920000000   1.0
H287   H   0.344847968239485   0.949372439949165   0.686624484444444   1.0
H288   H   0.680496419990448   0.018104795710265   0.651540035555556   1.0
H289   H   0.575171041874214   0.285515544141674   0.818731182222223   1.0
H290   H   0.499795948936665   0.130934146458571   0.651335568888889   1.0
H291   H   0.303423187693568   0.962280909031030   0.627062226666666   1.0
H292   H   0.673456174709663   0.905961731007558   0.602708860000000   1.0
H293   H   0.560564715018771   0.044585399744932   0.592366706666667   1.0
H294   H   0.461819014858861   0.744845756949864   0.581546697777775   1.0
H295   H   0.309055386550007   0.889212818726307   0.576282248888887   1.0
H296   H   0.667732112410590   0.837256800951550   0.547246637777775   1.0
H297   H   0.548431897877009   0.994753627491846   0.543517813333331   1.0
H298   H   0.428118685251882   0.697986929118066   0.526477813333337   1.0
H299   H   0.285448087200081   0.842142678249587   0.518251122222225   1.0
H300   H   0.645295930494235   0.786396454169996   0.490859984444441   1.0
H301   H   0.434316605532494   0.835859296401175   0.638602193333334   1.0
H302   H   0.871408155513002   0.781209135397809   0.240624406666669   1.0


# Number_of_total_atoms: 302
# Number_of_atom_type: 2
# Name_of_each_atom: C H
# Number_of_each_atom: 100 202
# Created_by: Lihua Chen (lihua.chen@mse.gatech.edu)
# Tool: VASP
# K-points: 2 2 1
# Pseudopotential: PBE-HSE06
# Material_class: MC_Pol
# Geometry_class: GC_PD
# Bandgap_(eV): 6.16
