#======================================================================

# Note: Disordered slab of Poly ethylene
# Common_name: Disordered slab-4

#----------------------------------------------------------------------

data_1
_audit_creation_method   'vasp2cif'
_cell_length_a    7.6789246
_cell_length_b    9.6651955
_cell_length_c    45.0
_cell_angle_alpha    90.0
_cell_angle_beta    90.0
_cell_angle_gamma    90.0

_symmetry_space_group_name_H-M    'P 1'
loop_
_atom_site_label
_atom_site_type_symbol
_atom_site_fract_x
_atom_site_fract_y
_atom_site_fract_z
_atom_site_occupancy
C1   C   0.044330712662550   0.282296100477225   0.293286642222221   1.0
C2   C   0.415671707467993   0.769063336587450   0.878502231111113   1.0
C3   C   0.501009190792161   0.750388070267178   0.846535577777779   1.0
C4   C   0.382685356749043   0.679867137710765   0.822006733333332   1.0
C5   C   0.456432584323068   0.703984290850606   0.790162151111112   1.0
C6   C   0.375809498116439   0.613287915386707   0.765842184444445   1.0
C7   C   0.467085182735090   0.630080126159889   0.734791142222221   1.0
C8   C   0.391775093090509   0.544918775828179   0.709713324444444   1.0
C9   C   0.488624605065141   0.584297182607429   0.681217786666664   1.0
C10   C   0.419200795382210   0.492472987225142   0.657039982222223   1.0
C11   C   0.538618780030738   0.484371702569284   0.629333326666668   1.0
C12   C   0.454817826964991   0.406028724406042   0.604366642222224   1.0
C13   C   0.559077217661439   0.419986124440008   0.575586702222225   1.0
C14   C   0.481019477649255   0.334048824982382   0.549817742222224   1.0
C15   C   0.547903752043609   0.366712478811216   0.517908902222224   1.0
C16   C   0.456536908827054   0.270687457899840   0.494175551111113   1.0
C17   C   0.560171120836372   0.277940368614374   0.465620000000001   1.0
C18   C   0.455664325705193   0.197269346491751   0.440239971111112   1.0
C19   C   0.546849099156411   0.181284248207909   0.409297773333336   1.0
C20   C   0.446196789066008   0.124927333337439   0.382786644444444   1.0
C21   C   0.552227443410501   0.135739302945297   0.354942240000000   1.0
C22   C   0.497310704157712   0.030009398154441   0.331226688888890   1.0
C23   C   0.480381367463877   0.658667080246850   0.900264486666664   1.0
C24   C   0.677531460590195   0.654021649122356   0.907531062222219   1.0
C25   C   0.747436887191206   0.513900375838233   0.901857842222221   1.0
C26   C   0.938596623282379   0.521039414050136   0.891560024444445   1.0
C27   C   0.966256811533221   0.749280984538800   0.286595577777781   1.0
C28   C   0.060973668109725   0.810800764454271   0.314066653333335   1.0
C29   C   0.940445866599603   0.806103632357981   0.342275577777777   1.0
C30   C   0.044656344196945   0.855993652689179   0.370286644444441   1.0
C31   C   0.949496613106476   0.869754698702160   0.401837751111110   1.0
C32   C   0.063591170044823   0.942634662692548   0.426462215555553   1.0
C33   C   0.968809239252067   0.946224709060466   0.455659993333335   1.0
C34   C   0.058199920337806   0.044535736499071   0.479004415555558   1.0
C35   C   0.952296432237397   0.047329316825511   0.507402208888891   1.0
C36   C   0.043653599619922   0.127969154891900   0.531215582222224   1.0
C37   C   0.575993648902347   0.056309952550883   0.300588904444446   1.0
C38   C   0.942151795578248   0.132459472754583   0.561028884444447   1.0
C39   C   0.939456053520829   0.205091392098588   0.617306688888888   1.0
C40   C   0.013323753693321   0.298457222101717   0.641851128888888   1.0
C41   C   0.930275145558795   0.261975797592505   0.671920013333335   1.0
C42   C   0.995326337753077   0.352020566992152   0.696262191111110   1.0
C43   C   0.905349715245286   0.325109636944227   0.725646633333334   1.0
C44   C   0.979474743117024   0.418061641898504   0.748597802222221   1.0
C45   C   0.882664247022298   0.412981465299900   0.779311115555558   1.0
C46   C   0.986728402047341   0.491562452099394   0.802815586666668   1.0
C47   C   0.895947252822353   0.472131960496817   0.832835557777777   1.0
C48   C   0.966295801367814   0.568715459506222   0.858140055555559   1.0
C49   C   0.029354683336777   0.219359008309766   0.586180031111112   1.0
C50   C   0.517626074880326   0.948335478573611   0.277273306666665   1.0
C51   C   0.099716150357828   0.749332685510602   0.260568915555552   1.0
C52   C   0.483532902510852   0.100820247246936   0.230433315555558   1.0
C53   C   0.143797713549631   0.040231715954427   0.848046706666665   1.0
C54   C   0.966035244049671   0.052130047447051   0.832726713333336   1.0
C55   C   0.910063864932340   0.938982258558553   0.810604519999998   1.0
C56   C   0.009391028530217   0.937947794227235   0.781073337777777   1.0
C57   C   0.929181255406519   0.857100738417550   0.756226602222220   1.0
C58   C   0.013414912291232   0.869350940702645   0.725393337777781   1.0
C59   C   0.908345030500755   0.802430307798737   0.700817786666668   1.0
C60   C   0.996237923732188   0.812321488996268   0.670664468888887   1.0
C61   C   0.022127095765470   0.723373531347605   0.618215520000000   1.0
C62   C   0.926355351893939   0.645051277027974   0.594179959999998   1.0
C63   C   0.010732323117224   0.659287916110955   0.564115566666665   1.0
C64   C   0.927735636315532   0.581627934996249   0.537560017777778   1.0
C65   C   0.057236178618034   0.578037888628323   0.509908888888887   1.0
C66   C   0.965527542749932   0.495256096992556   0.484546662222222   1.0
C67   C   0.062601591373877   0.492338401225304   0.455926684444442   1.0
C68   C   0.955291500062394   0.426690613759440   0.431555515555559   1.0
C69   C   0.054240863362558   0.432143178066084   0.402173359999999   1.0
C70   C   0.978680400117483   0.337897790065398   0.377915531111114   1.0
C71   C   0.075428817207033   0.346909402918961   0.348759968888892   1.0
C72   C   0.967741173028315   0.272436103335934   0.324619971111112   1.0
C73   C   0.556147237075358   0.966855621285674   0.244562191111115   1.0
C74   C   0.220410094923970   0.181925611333987   0.855991108888887   1.0
C75   C   0.416400976251282   0.204791222277912   0.849431186666664   1.0
C76   C   0.915312034708613   0.723487610778278   0.646875593333334   1.0
C77   C   0.411048716378850   0.155056118626881   0.795337762222225   1.0
C78   C   0.477828939745024   0.252260453500398   0.819020080000001   1.0
C79   C   0.574496121501177   0.360918514271127   0.223151144444444   1.0
C80   C   0.469090658866477   0.432763817348544   0.246759966666666   1.0
C81   C   0.574457118643934   0.467827733024130   0.274593353333330   1.0
C82   C   0.460808431430621   0.485561476744053   0.302382235555555   1.0
C83   C   0.551276607143663   0.550733660793512   0.330437808888888   1.0
C84   C   0.445793164839777   0.557438150112951   0.358615535555558   1.0
C85   C   0.475810284684918   0.637487943208185   0.412551117777781   1.0
C86   C   0.568258360031301   0.713741279211582   0.437179988888886   1.0
C87   C   0.486111414611365   0.708712617349541   0.470004442222219   1.0
C88   C   0.587154196044587   0.793015123180901   0.492024484444443   1.0
C89   C   0.560861386762411   0.631518348490729   0.382022264444444   1.0
C90   C   0.627276962714284   0.208453890042890   0.229139964444443   1.0
C91   C   0.485564463023898   0.785214194580959   0.524053362222219   1.0
C92   C   0.405279679396777   0.096661055640311   0.739540015555555   1.0
C93   C   0.507247199692522   0.103706945193196   0.710386657777775   1.0
C94   C   0.408991084506809   0.042083763334119   0.683002217777776   1.0
C95   C   0.515789984446521   0.050526448223422   0.655653297777775   1.0
C96   C   0.500748893927152   0.172634552503361   0.765051100000001   1.0
C97   C   0.549687921144582   0.987692964927611   0.600426653333336   1.0
C98   C   0.481084551865507   0.881549431669541   0.578617773333335   1.0
C99   C   0.571605143772345   0.878704160717703   0.548386637777774   1.0
C100   C   0.418484692504990   0.008561875442666   0.627164460000003   1.0
H101   H   0.381005512152051   0.505023142056466   0.773384433333334   1.0
H102   H   0.403222034502072   0.396106566080327   0.667746648888887   1.0
H103   H   0.300213014202534   0.526357382010538   0.649106682222225   1.0
H104   H   0.623213841688198   0.565425376030937   0.684942204444447   1.0
H105   H   0.483077109521297   0.689375460641223   0.677422248888888   1.0
H106   H   0.414695047272637   0.440834114529807   0.714860026666663   1.0
H107   H   0.255584251992786   0.549481715087914   0.708786688888893   1.0
H108   H   0.607339157881562   0.597716435223688   0.738384415555558   1.0
H109   H   0.467749377302127   0.743135356134289   0.727808888888887   1.0
H110   H   0.232495146520904   0.634787915050453   0.762611051111108   1.0
H111   H   0.695346311904146   0.698469772287588   0.929911128888889   1.0
H112   H   0.454244790995865   0.814856543770894   0.785491095555557   1.0
H113   H   0.361106944584400   0.571716236883155   0.827257793333331   1.0
H114   H   0.252888509935360   0.728081320238168   0.823179966666665   1.0
H115   H   0.634074828655045   0.707357259353934   0.846911113333334   1.0
H116   H   0.519892121352513   0.853883276339317   0.840962222222224   1.0
H117   H   0.273164864778067   0.766466306863634   0.875840082222226   1.0
H118   H   0.445649837478548   0.880028324310665   0.885817804444443   1.0
H119   H   0.425308642827410   0.682133010139317   0.921295506666667   1.0
H120   H   0.420945974648589   0.554799693394720   0.893344455555557   1.0
H121   H   0.571383576288795   0.591415703903763   0.624586655555554   1.0
H122   H   0.602937473822834   0.678263134977456   0.789184402222219   1.0
H123   H   0.655210613736202   0.427487286728962   0.636933306666670   1.0
H124   H   0.716286861313890   0.062486754665230   0.304146662222223   1.0
H125   H   0.441795118029937   0.300143706353381   0.609977806666670   1.0
H126   H   0.750393199589432   0.728557316817856   0.891644457777780   1.0
H127   H   0.530870090845795   0.151703873967165   0.290448931111108   1.0
H128   H   0.511570643628929   0.922459209438649   0.338433328888890   1.0
H129   H   0.357708005102694   0.041907739993462   0.326584455555555   1.0
H130   H   0.688496524630544   0.131414548210636   0.359746635555552   1.0
H131   H   0.524723487973823   0.235520129934258   0.345755513333330   1.0
H132   H   0.412455085182110   0.017811103769191   0.385946655555557   1.0
H133   H   0.331285047388015   0.174465886385846   0.379542202222226   1.0
H134   H   0.649754055405104   0.108362836530311   0.415126631111114   1.0
H135   H   0.603575584008212   0.276150472072707   0.401919980000002   1.0
H136   H   0.319317238770651   0.442355035653442   0.602208879999999   1.0
H137   H   0.412220859676104   0.093122524008955   0.446957737777780   1.0
H138   H   0.678455965044897   0.224956411900827   0.470371077777777   1.0
H139   H   0.587310428858750   0.384591072161967   0.458568913333330   1.0
H140   H   0.446913139373706   0.160063673828432   0.502946642222220   1.0
H141   H   0.322833173801449   0.305037595980337   0.492477755555555   1.0
H142   H   0.693301832915509   0.353086215379712   0.516931153333331   1.0
H143   H   0.544765382902703   0.476208453310647   0.514979977777777   1.0
H144   H   0.483832462686245   0.225928921975765   0.553513337777780   1.0
H145   H   0.343982124788674   0.363763795569369   0.547846646666663   1.0
H146   H   0.698680164146943   0.388388118998733   0.578602259999997   1.0
H147   H   0.559481102340811   0.525022758204940   0.569037797777774   1.0
H148   H   0.336051352815730   0.247490896588694   0.438284471111111   1.0
H149   H   0.749208137816588   0.457574634677592   0.921806675555558   1.0
H150   H   0.051805678623282   0.317836002386088   0.580135515555554   1.0
H151   H   0.997032514162207   0.416540731121266   0.892882284444447   1.0
H152   H   0.828034149469318   0.090391115213343   0.505911086666664   1.0
H153   H   0.940367626477283   0.941206693646294   0.513524457777777   1.0
H154   H   0.085391149693017   0.154114606372936   0.471562195555556   1.0
H155   H   0.177109708825633   0.985116865975449   0.483606635555553   1.0
H156   H   0.833946513812627   0.979002028463881   0.452375539999999   1.0
H157   H   0.952569908031130   0.841736475997820   0.463497755555558   1.0
H158   H   0.077955173566885   0.048198404264042   0.421737755555554   1.0
H159   H   0.181029502490489   0.888377860540949   0.431168873333334   1.0
H160   H   0.822447416660403   0.909163886027969   0.398484462222221   1.0
H161   H   0.919987194561074   0.768173711540548   0.410146671111114   1.0
H162   H   0.089649493367858   0.956808944009460   0.363762242222222   1.0
H163   H   0.160219361966391   0.800185345449037   0.372406684444442   1.0
H164   H   0.825911430358360   0.866453958432608   0.337131075555554   1.0
H165   H   0.884135937472287   0.705763923761296   0.347108884444445   1.0
H166   H   0.101708460583140   0.915713272431994   0.311008880000003   1.0
H167   H   0.174895831116771   0.744770139414150   0.317708926666668   1.0
H168   H   0.858702545405905   0.814215170298418   0.279866706666667   1.0
H169   H   0.923880916866928   0.651486987511014   0.291815524444445   1.0
H170   H   0.029575990367192   0.727895033266527   0.239577740000001   1.0
H171   H   0.165871168991551   0.846050770519852   0.257406702222220   1.0
H172   H   0.371863607047267   0.951532413389877   0.280642191111113   1.0
H173   H   0.167095220598988   0.084669575488668   0.531517791111114   1.0
H174   H   0.072980466561688   0.237672150552981   0.522397784444443   1.0
H175   H   0.931303974517476   0.035679226560909   0.570768908888887   1.0
H176   H   0.812276695619595   0.160777658351556   0.560391151111112   1.0
H177   H   0.003439674352315   0.591529369478351   0.907504442222219   1.0
H178   H   0.924948722637545   0.673648887909202   0.855335491111113   1.0
H179   H   0.104794921413863   0.579020651987847   0.856957837777777   1.0
H180   H   0.755419814904812   0.478567484744616   0.831444464444445   1.0
H181   H   0.902133092959396   0.361849576658848   0.838306682222225   1.0
H182   H   0.006991604006636   0.597995870854348   0.796731057777777   1.0
H183   H   0.109587324245901   0.441527178627687   0.804711066666670   1.0
H184   H   0.748205406262223   0.446752204857105   0.775262284444445   1.0
H185   H   0.886414889397400   0.306268817842330   0.786991035555559   1.0
H186   H   0.953208018216507   0.525840155018074   0.741257815555556   1.0
H187   H   0.676880197521406   0.453011695417850   0.884955513333331   1.0
H188   H   0.122284388623896   0.396582552313610   0.750420040000002   1.0
H189   H   0.917226365264739   0.221511018582085   0.732864466666669   1.0
H190   H   0.989284072407742   0.458112595860065   0.690491146666666   1.0
H191   H   0.131126720530631   0.324105953159460   0.701619975555559   1.0
H192   H   0.791154076444506   0.282254849371647   0.671651120000000   1.0
H193   H   0.954510309946265   0.153297209559810   0.679186673333334   1.0
H194   H   0.988121617967181   0.403886977764699   0.635664453333334   1.0
H195   H   0.155531296660996   0.293087346241471   0.644211071111108   1.0
H196   H   0.800165820094129   0.225183949978046   0.615553368888889   1.0
H197   H   0.953767888279565   0.102361881867779   0.625713348888887   1.0
H198   H   0.161261096377999   0.178894239645750   0.589053344444444   1.0
H199   H   0.764848348686741   0.344571105674994   0.724200015555553   1.0
H200   H   0.547786522086696   0.842377839123898   0.285311128888885   1.0
H201   H   0.440493073730664   0.051602360241965   0.805515544444447   1.0
H202   H   0.493951014963734   0.871471973846781   0.232957797777779   1.0
H203   H   0.779069037870222   0.747418466600081   0.643535528888890   1.0
H204   H   0.911483412664317   0.613836129853766   0.653711106666670   1.0
H205   H   0.027778915813293   0.916675508529551   0.663082208888888   1.0
H206   H   0.128743704554672   0.769601287423519   0.675871106666669   1.0
H207   H   0.774003172267115   0.842367575492915   0.699720002222222   1.0
H208   H   0.899320120945063   0.696359002774443   0.704273308888887   1.0
H209   H   0.026997478266686   0.980740213687348   0.719593302222222   1.0
H210   H   0.139930075625436   0.823030035967719   0.726017762222220   1.0
H211   H   0.794943721676859   0.880845710777400   0.756582302222220   1.0
H212   H   0.925821318782063   0.748205072520264   0.762662251111109   1.0
H213   H   0.044968809825271   0.046325829622383   0.776666599999999   1.0
H214   H   0.140385868614985   0.898300215448309   0.783933342222220   1.0
H215   H   0.771008117464781   0.935050811957190   0.807302177777778   1.0
H216   H   0.932697177414660   0.842036438890453   0.822624375555556   1.0
H217   H   0.872519597340492   0.069242955302869   0.850744460000001   1.0
H218   H   0.978511001397251   0.139722647100100   0.818920053333336   1.0
H219   H   0.154788861971639   0.973218720718066   0.866266719999999   1.0
H220   H   0.228653332525234   0.988603500053358   0.832582262222225   1.0
H221   H   0.185730733701959   0.198366168589139   0.878842164444443   1.0
H222   H   0.148199384585702   0.262068946251524   0.843068951111114   1.0
H223   H   0.465900120962253   0.275891760285653   0.867284477777780   1.0
H224   H   0.157093898278411   0.685278254330186   0.619586693333332   1.0
H225   H   0.025239393547373   0.824509716332173   0.611226655555555   1.0
H226   H   0.917747232470546   0.536569239597895   0.595493317777780   1.0
H227   H   0.790229324559327   0.675645598684476   0.591164484444441   1.0
H228   H   0.062757824188040   0.389464227598914   0.289066653333336   1.0
H229   H   0.165962327589462   0.228619079665798   0.296702237777779   1.0
H230   H   0.834519549781753   0.316015128716231   0.323248884444446   1.0
H231   H   0.944886540492924   0.164553991691115   0.328517744444447   1.0
H232   H   0.087878490172962   0.454470641592302   0.342884404444448   1.0
H233   H   0.190653284966494   0.290593935735700   0.351868862222226   1.0
H234   H   0.832826539278692   0.368988614870752   0.373640017777781   1.0
H235   H   0.986337696296694   0.233719783526368   0.386348893333334   1.0
H236   H   0.041166246117328   0.541007856488783   0.395379977777779   1.0
H237   H   0.191395459202710   0.406370114293083   0.406184473333333   1.0
H238   H   0.484431322583894   0.105952114470938   0.855046591111112   1.0
H239   H   0.825820271760449   0.478184636823954   0.431631131111111   1.0
H240   H   0.102359736674586   0.599196105241738   0.450971137777778   1.0
H241   H   0.177591573174190   0.436892011134176   0.458944448888886   1.0
H242   H   0.839324858066718   0.548115720990850   0.481231095555557   1.0
H243   H   0.943389013091753   0.395278905636211   0.492637804444442   1.0
H244   H   0.085742865609070   0.685381656273790   0.503053368888892   1.0
H245   H   0.190132417760687   0.528737137288118   0.515031093333334   1.0
H246   H   0.810102068198454   0.630866328570384   0.531666648888887   1.0
H247   H   0.889761660115795   0.477367250357226   0.543953366666663   1.0
H248   H   0.032466981118681   0.773677976818988   0.559628888888888   1.0
H249   H   0.144188432322934   0.617685074243973   0.567464446666669   1.0
H250   H   0.929103015284198   0.321208970889416   0.436424424444446   1.0
H251   H   0.700946210619129   0.959520032471147   0.239895546666666   1.0
H252   H   0.624998010789170   0.245038726842104   0.820944386666667   1.0
H253   H   0.971530818260675   0.232085000246506   0.276368884444445   1.0
H254   H   0.563153257163115   0.820960714141791   0.434206644444444   1.0
H255   H   0.453398539686141   0.527567880028911   0.414657762222220   1.0
H256   H   0.344398667490495   0.680425615808808   0.410591126666667   1.0
H257   H   0.684589636418622   0.587101016218455   0.385277811111109   1.0
H258   H   0.595189032068369   0.738365602640940   0.375322217777779   1.0
H259   H   0.428368784868653   0.447352316877606   0.363313293333334   1.0
H260   H   0.319512474442057   0.596505947551705   0.354151071111111   1.0
H261   H   0.668363484126409   0.492379838566123   0.334304471111111   1.0
H262   H   0.596738728232857   0.656639195761741   0.327244484444442   1.0
H263   H   0.450168751494189   0.387757019503638   0.310584431111110   1.0
H264   H   0.339658433421782   0.537138374490198   0.299059973333335   1.0
H265   H   0.670134487321313   0.390498888511878   0.278235542222220   1.0
H266   H   0.651355894287590   0.558482878075253   0.272948880000001   1.0
H267   H   0.360768147143936   0.361270178135555   0.253297764444447   1.0
H268   H   0.394041126540038   0.512958853237890   0.239475588888887   1.0
H269   H   0.693744459998996   0.415206107315676   0.216353353333332   1.0
H270   H   0.486111414611365   0.358869905942413   0.203373295555558   1.0
H271   H   0.728215419643526   0.171982729164661   0.214628855555553   1.0
H272   H   0.707053810633852   0.201366563149186   0.250573306666666   1.0
H273   H   0.442615545411137   0.080230958597788   0.208755577777779   1.0
H274   H   0.370326855403682   0.135077215975613   0.241277737777779   1.0
H275   H   0.698849562867174   0.667234087505008   0.437282224444445   1.0
H276   H   0.341429684047164   0.738541636327994   0.467628902222223   1.0
H277   H   0.480107891670144   0.600416866891102   0.476446702222219   1.0
H278   H   0.614671056934199   0.902273099390491   0.482888879999997   1.0
H279   H   0.278504206174908   0.169934120835940   0.791784499999999   1.0
H280   H   0.634908174511835   0.152893648141934   0.766084460000002   1.0
H281   H   0.505137399057155   0.278892144499302   0.760811191111110   1.0
H282   H   0.387412659319509   0.994304315934428   0.747846646666666   1.0
H283   H   0.284286161632579   0.134621953585935   0.737566631111115   1.0
H284   H   0.622406332782589   0.044546196711693   0.712368859999998   1.0
H285   H   0.542056709347037   0.211019735710465   0.706508891111113   1.0
H286   H   0.378648307081960   0.931057007589757   0.687182195555557   1.0
H287   H   0.288088725340522   0.095719533039968   0.680664486666664   1.0
H288   H   0.633501805708576   0.989575803200253   0.658260006666666   1.0
H289   H   0.431051608450488   0.359407867124879   0.812908935555555   1.0
H290   H   0.550625591505352   0.161025909925982   0.652662235555553   1.0
H291   H   0.320358986204916   0.083252066655042   0.622815535555553   1.0
H292   H   0.674536158357384   0.948438880517216   0.608451080000002   1.0
H293   H   0.563348740265013   0.088787319408077   0.589382257777778   1.0
H294   H   0.489549343927664   0.780113294138751   0.587702264444445   1.0
H295   H   0.343864881809104   0.904156144591177   0.573948924444444   1.0
H296   H   0.706884411913613   0.855424910960153   0.553286657777775   1.0
H297   H   0.576866232024209   0.983274678717052   0.539295535555553   1.0
H298   H   0.461316132730360   0.677187233305318   0.531844417777776   1.0
H299   H   0.352251433748940   0.820774830679838   0.524328868888887   1.0
H300   H   0.715023572441382   0.751846819859978   0.494935524444443   1.0
H301   H   0.347185568145832   0.910177833443718   0.629077742222222   1.0
H302   H   0.199899254122123   0.674921350530362   0.264166684444447   1.0


# Number_of_total_atoms: 302
# Number_of_atom_type: 2
# Name_of_each_atom: C H
# Number_of_each_atom: 100 202
# Created_by: Lihua Chen (lihua.chen@mse.gatech.edu)
# Tool: VASP
# K-points: 2 2 1
# Pseudopotential: PBE-HSE06
# Material_class: MC_Pol
# Geometry_class: GC_PD
# Bandgap_(eV): 6.41
