#======================================================================

# Note: Disordered slab of polyethylene
# Common_name: Disordered slab-5

#----------------------------------------------------------------------

data_1
_audit_creation_method   'vasp2cif'
_cell_length_a    7.4382897
_cell_length_b    10.1520271
_cell_length_c    45.0
_cell_angle_alpha    90.0
_cell_angle_beta    90.0
_cell_angle_gamma    90.0

_symmetry_space_group_name_H-M    'P 1'
loop_
_atom_site_label
_atom_site_type_symbol
_atom_site_fract_x
_atom_site_fract_y
_atom_site_fract_z
_atom_site_occupancy
C1   C   0.035464335302777   0.368927630226679   0.288957806666666   1.0
C2   C   0.504376120225594   0.715557812094495   0.883024428888888   1.0
C3   C   0.590820669434265   0.715656265338374   0.852579922222219   1.0
C4   C   0.510573606725750   0.631042887976534   0.828773328888886   1.0
C5   C   0.555355567826297   0.668148531636604   0.797688973333337   1.0
C6   C   0.485339270934823   0.584864947809294   0.771864488888887   1.0
C7   C   0.537757275035950   0.639897976631680   0.740635595555553   1.0
C8   C   0.471048553002717   0.540735652685562   0.714533317777779   1.0
C9   C   0.548283942207846   0.576344284975363   0.684148915555554   1.0
C10   C   0.459419522205486   0.478009381988350   0.660975562222220   1.0
C11   C   0.530927694305859   0.486677542458494   0.630008866666664   1.0
C12   C   0.444805974685281   0.385909411136225   0.609724426666666   1.0
C13   C   0.487638361275444   0.416238467290931   0.575366635555554   1.0
C14   C   0.412795914630749   0.305688998801038   0.553704413333335   1.0
C15   C   0.467230417228841   0.342233463896093   0.522846646666665   1.0
C16   C   0.374816592583102   0.263687613678648   0.499322255555555   1.0
C17   C   0.469636951623436   0.273084741864018   0.468928866666666   1.0
C18   C   0.389215010004250   0.196912752528014   0.443371075555554   1.0
C19   C   0.478523295482830   0.225488326365877   0.413926697777775   1.0
C20   C   0.414462924185379   0.157679179166102   0.387535520000000   1.0
C21   C   0.531290788526292   0.186875328573542   0.358886633333334   1.0
C22   C   0.456676821823706   0.119351759807657   0.332522244444448   1.0
C23   C   0.522323673411108   0.585150526243176   0.900062222222225   1.0
C24   C   0.703413702749437   0.541513851947855   0.911759948888886   1.0
C25   C   0.760375775630251   0.415548949825009   0.895704482222222   1.0
C26   C   0.960569564801972   0.410180504738804   0.889531113333334   1.0
C27   C   0.997567317121302   0.806849904882540   0.290582191111113   1.0
C28   C   0.048706788067157   0.898545936702632   0.316560024444442   1.0
C29   C   0.953995392247229   0.870325070349743   0.346431140000000   1.0
C30   C   0.023633739352746   0.958120363961598   0.371304406666667   1.0
C31   C   0.915976074446256   0.919714221409045   0.400326706666668   1.0
C32   C   0.994783074931860   0.990695129251577   0.426911077777781   1.0
C33   C   0.894868870192028   0.973151775767029   0.456486682222220   1.0
C34   C   0.969294621584851   0.053404496920621   0.482480028888887   1.0
C35   C   0.886923602881453   0.024080215467507   0.513566673333337   1.0
C36   C   0.966471405382343   0.116485484953053   0.537075551111108   1.0
C37   C   0.562843633261558   0.116455796301018   0.302624426666668   1.0
C38   C   0.868317296111769   0.120937827283775   0.567368911111110   1.0
C39   C   0.913636719473295   0.190500259795407   0.618855542222221   1.0
C40   C   0.046501805381418   0.247749870565258   0.642491151111109   1.0
C41   C   0.957006823759500   0.212820797139123   0.671779971111114   1.0
C42   C   0.072435401379970   0.252793099813530   0.699086677777778   1.0
C43   C   0.970114662245543   0.268583167986222   0.727297804444447   1.0
C44   C   0.086887661823660   0.343996697959959   0.749088882222225   1.0
C45   C   0.966552176638132   0.367312248408005   0.778997802222221   1.0
C46   C   0.058991396906741   0.439879036571917   0.804237704444446   1.0
C47   C   0.949975704764498   0.412938564752252   0.834413317777781   1.0
C48   C   0.030248176539828   0.488903698848482   0.862282139999998   1.0
C49   C   0.985561842260594   0.206369051162206   0.587479995555555   1.0
C50   C   0.503636595385629   0.027488520002081   0.276486631111112   1.0
C51   C   0.063508550897126   0.853658359521127   0.262224408888890   1.0
C52   C   0.479786946184689   0.204595848645830   0.233588917777780   1.0
C53   C   0.192987293839870   0.980490310156874   0.841802302222220   1.0
C54   C   0.994434849720896   0.980588773251007   0.832179940000003   1.0
C55   C   0.941344769080452   0.877141314959651   0.808877733333333   1.0
C56   C   0.015567436154036   0.914976290794179   0.777757773333335   1.0
C57   C   0.967936863228118   0.806357668213870   0.754208884444445   1.0
C58   C   0.076239945319685   0.813035999480341   0.725695546666664   1.0
C59   C   0.985199003475223   0.731150993479915   0.701117791111109   1.0
C60   C   0.060564298806483   0.751048458095624   0.669648913333333   1.0
C61   C   0.048679859833911   0.691966651665062   0.616402182222224   1.0
C62   C   0.939825454768183   0.621025194071834   0.591884444444446   1.0
C63   C   0.015473328499155   0.625644754238294   0.560228899999998   1.0
C64   C   0.887824414797933   0.576748224007403   0.534735531111110   1.0
C65   C   0.969724895226925   0.604653833124615   0.505191124444444   1.0
C66   C   0.862415200096336   0.539622663142815   0.481375546666669   1.0
C67   C   0.969738231626017   0.527792503627182   0.451973299999999   1.0
C68   C   0.869957377433145   0.479693715553616   0.425582206666668   1.0
C69   C   0.980399271085126   0.474906376087198   0.397742208888886   1.0
C70   C   0.896791529913116   0.389435898964457   0.374333360000001   1.0
C71   C   0.017704983983080   0.403472484820298   0.345651075555558   1.0
C72   C   0.925427064234938   0.340608123475164   0.317680019999997   1.0
C73   C   0.552774154521032   0.066150739491228   0.244711133333332   1.0
C74   C   0.270787315530342   0.124257272717486   0.848860000000002   1.0
C75   C   0.480526471024646   0.145366367274569   0.848375617777776   1.0
C76   C   0.956321410821090   0.678717829663789   0.646508873333332   1.0
C77   C   0.498111185424790   0.095760599378224   0.793522304444444   1.0
C78   C   0.568140563280295   0.179605745930289   0.819664511111114   1.0
C79   C   0.582498716069097   0.437386834792825   0.221337808888890   1.0
C80   C   0.454391323317239   0.528708606382658   0.242117817777775   1.0
C81   C   0.569942200557207   0.584411796930681   0.268255531111109   1.0
C82   C   0.464380272793086   0.569596814807554   0.297148895555559   1.0
C83   C   0.561526139537158   0.648704227749747   0.322942182222221   1.0
C84   C   0.440436515937257   0.657746825754629   0.351713308888890   1.0
C85   C   0.418428755201617   0.708593912244382   0.407277764444444   1.0
C86   C   0.506822905808576   0.772807432714593   0.433651140000002   1.0
C87   C   0.413010802738697   0.749304944231284   0.463337795555553   1.0
C88   C   0.503206308299610   0.823221275680005   0.489479997777778   1.0
C89   C   0.531586447890028   0.721881810185472   0.378284453333336   1.0
C90   C   0.642270668753326   0.300054715180970   0.232484435555556   1.0
C91   C   0.406692280350413   0.810859232241413   0.518462202222224   1.0
C92   C   0.525792320242651   0.041879645888649   0.740599993333333   1.0
C93   C   0.552223100425898   0.078404371083686   0.708102248888892   1.0
C94   C   0.444308508177628   0.997137113631226   0.685795595555554   1.0
C95   C   0.519513807051638   0.995524351978929   0.653939988888887   1.0
C96   C   0.572429237328578   0.145376138722085   0.763915506666663   1.0
C97   C   0.509121740714136   0.924511135317992   0.600702244444442   1.0
C98   C   0.410241429558731   0.865104300204244   0.575088924444444   1.0
C99   C   0.518881968256764   0.866611457331508   0.545191108888886   1.0
C100   C   0.416694566225353   0.914089512231506   0.630882264444445   1.0
H101   H   0.525563584865480   0.480422673418595   0.774562244444446   1.0
H102   H   0.462551989605892   0.370493780498279   0.665504457777779   1.0
H103   H   0.323272485609159   0.502428140681381   0.662573326666667   1.0
H104   H   0.696153861821216   0.546409583559921   0.684844462222223   1.0
H105   H   0.543403693997021   0.677053235998549   0.676555548888892   1.0
H106   H   0.499818446167808   0.436332828544167   0.720091077777781   1.0
H107   H   0.323917902794243   0.555786981695505   0.712211099999998   1.0
H108   H   0.680478201864062   0.633653273049283   0.739375559999999   1.0
H109   H   0.505545663272564   0.743552477317557   0.736304473333334   1.0
H110   H   0.341556218225811   0.597936041758594   0.770248922222223   1.0
H111   H   0.686850822709957   0.525053986508766   0.934606595555557   1.0
H112   H   0.522296758621813   0.767054965800867   0.794784377777781   1.0
H113   H   0.554441164075662   0.531180900807485   0.833086651111110   1.0
H114   H   0.371038963432682   0.628589939441753   0.831491088888889   1.0
H115   H   0.725744051082067   0.692665930728261   0.857822164444443   1.0
H116   H   0.581866890718175   0.818690013150182   0.843953280000001   1.0
H117   H   0.354892778645066   0.727328791311045   0.878822157777776   1.0
H118   H   0.550206333049921   0.796930664221733   0.898151144444448   1.0
H119   H   0.434588545267331   0.605885183265521   0.918237813333334   1.0
H120   H   0.435381657694776   0.509894629812408   0.887526617777780   1.0
H121   H   0.510183839707132   0.585347432730948   0.622195519999998   1.0
H122   H   0.707043623213544   0.662218710980390   0.797766622222220   1.0
H123   H   0.670341543701909   0.470690567798030   0.630091095555557   1.0
H124   H   0.701128204242970   0.101059895712851   0.308488888888888   1.0
H125   H   0.503421451842620   0.285555187298506   0.610915544444445   1.0
H126   H   0.802038619173437   0.619941509021388   0.907442220000000   1.0
H127   H   0.552088486147561   0.216928390587135   0.295946673333333   1.0
H128   H   0.447521491398753   0.016978215119224   0.340468851111112   1.0
H129   H   0.318903295740149   0.151059841043960   0.325953335555553   1.0
H130   H   0.664601003642005   0.139751803854033   0.361617788888886   1.0
H131   H   0.531976456899763   0.294361251261826   0.354342226666667   1.0
H132   H   0.406961011480902   0.044460342309371   0.388724433333330   1.0
H133   H   0.276998393864652   0.179980183465034   0.380975595555554   1.0
H134   H   0.621634258208580   0.203857109483088   0.415468853333330   1.0
H135   H   0.465522901050761   0.327418668927706   0.412726677777776   1.0
H136   H   0.291437317909249   0.370779546086908   0.612337748888891   1.0
H137   H   0.402390269903037   0.095169525305934   0.446477762222223   1.0
H138   H   0.606348365270044   0.234865724501468   0.470915562222224   1.0
H139   H   0.475901617545226   0.373133667068323   0.459273359999997   1.0
H140   H   0.388516005231686   0.164042440351643   0.504997762222224   1.0
H141   H   0.235080155590069   0.288904114529011   0.500291104444443   1.0
H142   H   0.612613286626896   0.351935890714870   0.522448900000001   1.0
H143   H   0.444442880464848   0.451699237485293   0.520417786666670   1.0
H144   H   0.452441990797965   0.203187322066938   0.561464437777779   1.0
H145   H   0.270720136108707   0.330885966606608   0.552695551111114   1.0
H146   H   0.633612804836034   0.426403826286084   0.573726655555554   1.0
H147   H   0.431939952540432   0.511687365373561   0.569895595555558   1.0
H148   H   0.246857150508674   0.222375549017201   0.441977777777780   1.0
H149   H   0.708697040934020   0.336145999846671   0.907893373333330   1.0
H150   H   0.989595121577480   0.310998263588168   0.580128902222221   1.0
H151   H   0.999878199070416   0.303856812990581   0.887142266666665   1.0
H152   H   0.749271112686024   0.043032095530954   0.513628895555556   1.0
H153   H   0.920399107337808   0.920078700341534   0.516935560000000   1.0
H154   H   0.979686929913470   0.155344601079719   0.477335526666664   1.0
H155   H   0.109863158462353   0.029054670273680   0.484339991111113   1.0
H156   H   0.751650463412311   0.000754893571944   0.452382235555554   1.0
H157   H   0.893927793643208   0.873230805303898   0.463613297777776   1.0
H158   H   0.990507992717731   0.097109945658047   0.422215524444446   1.0
H159   H   0.136912454485334   0.959981864114603   0.424260033333333   1.0
H160   H   0.786336030983037   0.966375001106925   0.396028899999998   1.0
H161   H   0.884221422567073   0.820305394968855   0.402766673333332   1.0
H162   H   0.010794900876206   0.057324768173636   0.363997820000002   1.0
H163   H   0.166408536091303   0.943739009522545   0.375006697777778   1.0
H164   H   0.811570366773964   0.888607153146786   0.341715579999999   1.0
H165   H   0.981179060557430   0.771999928960000   0.352553306666664   1.0
H166   H   0.014034798886634   0.004241921300626   0.309362200000002   1.0
H167   H   0.197302640686338   0.907726438200704   0.319824473333334   1.0
H168   H   0.853757336179044   0.804988404729535   0.290642208888890   1.0
H169   H   0.048034442648827   0.708544680697315   0.297935571111111   1.0
H170   H   0.997243196913935   0.800407920502892   0.243200004444446   1.0
H171   H   0.032750082320668   0.953293761400616   0.256375546666668   1.0
H172   H   0.361574395253790   0.017510099042191   0.277955542222223   1.0
H173   H   0.101501209343866   0.089584473232939   0.538682217777776   1.0
H174   H   0.978947405073505   0.216376776614396   0.529402246666663   1.0
H175   H   0.874783769177476   0.016672906635563   0.576760017777779   1.0
H176   H   0.729400899779421   0.152626001165814   0.566131084444443   1.0
H177   H   0.024897390054598   0.443769816177891   0.910506693333332   1.0
H178   H   0.986610604854498   0.590036131798740   0.862160068888890   1.0
H179   H   0.181680837195678   0.479585303707473   0.864728968888890   1.0
H180   H   0.805076978918954   0.432737585974330   0.832991028888891   1.0
H181   H   0.959964667684297   0.306378516266960   0.839295620000001   1.0
H182   H   0.045318925935355   0.547207315866999   0.799415591111114   1.0
H183   H   0.206323598824071   0.421094561498954   0.804964362222222   1.0
H184   H   0.836804447129829   0.414189457788190   0.776655577777781   1.0
H185   H   0.923114624051280   0.276689943036104   0.787368944444445   1.0
H186   H   0.132408905773055   0.439435647290580   0.742331102222224   1.0
H187   H   0.694957390540999   0.393110042032888   0.873940022222222   1.0
H188   H   0.201658494156256   0.288372240456290   0.759184435555554   1.0
H189   H   0.943253836967386   0.175242262700422   0.739388868888888   1.0
H190   H   0.136697310942324   0.352615626883029   0.694422235555557   1.0
H191   H   0.187031610236964   0.184718104229645   0.702584415555556   1.0
H192   H   0.826694703756964   0.261875148067716   0.673102231111109   1.0
H193   H   0.941398612102994   0.105147759111084   0.674382188888892   1.0
H194   H   0.051597183691300   0.357402779194707   0.641997782222219   1.0
H195   H   0.186991090169556   0.204231369713348   0.639942255555553   1.0
H196   H   0.779950073738050   0.238963359347217   0.622171106666670   1.0
H197   H   0.911257126755899   0.085013937758305   0.623822191111110   1.0
H198   H   0.123320768213695   0.172937176261087   0.586615584444445   1.0
H199   H   0.841872897206464   0.318760279905085   0.721955533333336   1.0
H200   H   0.540634320817055   0.925102199540028   0.281955551111110   1.0
H201   H   0.531384896181173   0.998755302771009   0.799508835555557   1.0
H202   H   0.493567116645110   0.005529644419489   0.227517784444444   1.0
H203   H   0.816584973828057   0.712661858438103   0.644364422222225   1.0
H204   H   0.955877545344869   0.578747627653591   0.653319973333332   1.0
H205   H   0.055576606541692   0.854298645439982   0.663480040000003   1.0
H206   H   0.193981957976170   0.718306100660428   0.666997782222225   1.0
H207   H   0.847492414822185   0.764582484221307   0.702135553333335   1.0
H208   H   0.970155182312944   0.627368725207596   0.707708911111112   1.0
H209   H   0.107900502987938   0.910228224272572   0.718048860000003   1.0
H210   H   0.219794518086594   0.780697581077185   0.729439968888890   1.0
H211   H   0.832435243816867   0.825998868738246   0.750797779999999   1.0
H212   H   0.961900408369416   0.701925342575180   0.762526617777780   1.0
H213   H   0.970034146424815   0.010959712666647   0.770326742222224   1.0
H214   H   0.163854051019285   0.921950346251535   0.779388935555552   1.0
H215   H   0.800008501954423   0.862090350408934   0.806799995555558   1.0
H216   H   0.000740035710088   0.786558637141539   0.815126715555557   1.0
H217   H   0.902397711129751   0.960051003015941   0.851733397777778   1.0
H218   H   0.963836404489598   0.077626181671640   0.824548848888888   1.0
H219   H   0.196549779447281   0.915793940305775   0.861179946666667   1.0
H220   H   0.286476553877698   0.942990498912280   0.825182257777776   1.0
H221   H   0.236223039282805   0.135319191573082   0.872293259999999   1.0
H222   H   0.213637040783716   0.195425305750021   0.834002177777776   1.0
H223   H   0.527781890506361   0.203512350750131   0.866137697777781   1.0
H224   H   0.180632316592885   0.646280967867000   0.617986637777776   1.0
H225   H   0.064543721656875   0.801905316032894   0.611599986666668   1.0
H226   H   0.907923107646639   0.524285755698976   0.596986644444442   1.0
H227   H   0.807698374533601   0.665499070624037   0.590326691111109   1.0
H228   H   0.011265439150613   0.303974986433993   0.270644464444445   1.0
H229   H   0.018525024643772   0.469390256060287   0.281744471111111   1.0
H230   H   0.786604775557478   0.383673463598221   0.313031091111114   1.0
H231   H   0.914362665923058   0.231595510614824   0.321844482222225   1.0
H232   H   0.048720111022298   0.498113701843842   0.340668911111109   1.0
H233   H   0.139910549598518   0.346961613213189   0.347975582222219   1.0
H234   H   0.762674597091859   0.418612308471872   0.368482208888892   1.0
H235   H   0.896509206948473   0.283575129542356   0.380415513333333   1.0
H236   H   0.979727194545809   0.578757773410594   0.390275573333334   1.0
H237   H   0.114730083718037   0.445749686779301   0.404142253333333   1.0
H238   H   0.515426926703327   0.042766247146837   0.853486633333333   1.0
H239   H   0.757861797181683   0.542242819663080   0.420951080000002   1.0
H240   H   0.013201166391788   0.623704343736435   0.444746653333333   1.0
H241   H   0.082881310740021   0.463115676671116   0.454164462222224   1.0
H242   H   0.729199092635504   0.568986207690479   0.478442213333331   1.0
H243   H   0.831561360133634   0.441317064648103   0.490824466666666   1.0
H244   H   0.001977013613761   0.706820709728014   0.499942186666665   1.0
H245   H   0.111395795729763   0.569981210944562   0.508406662222221   1.0
H246   H   0.749553435650668   0.616395488148370   0.536804453333332   1.0
H247   H   0.860344845132879   0.471961190883739   0.539908855555552   1.0
H248   H   0.042616732177024   0.730579462302657   0.556251102222220   1.0
H249   H   0.154443325862935   0.579516045618121   0.559428915555557   1.0
H250   H   0.822917088050495   0.375241659865154   0.429646640000001   1.0
H251   H   0.689795074800593   0.056822385747964   0.236126708888889   1.0
H252   H   0.711211274817650   0.166081491252129   0.821222262222221   1.0
H253   H   0.177136754972047   0.347995879561829   0.290673320000003   1.0
H254   H   0.496551619924133   0.875230583259572   0.430051082222221   1.0
H255   H   0.411101990286824   0.602486837333203   0.408804406666668   1.0
H256   H   0.276823770389043   0.744202544534183   0.405682204444446   1.0
H257   H   0.664869990207563   0.682697468370627   0.378964402222223   1.0
H258   H   0.544170147070233   0.829544889611256   0.372417788888889   1.0
H259   H   0.403559812950014   0.558545041708960   0.355211133333334   1.0
H260   H   0.309707714126809   0.704161102958444   0.348775566666667   1.0
H261   H   0.695669987147717   0.607628697129854   0.327057817777778   1.0
H262   H   0.587473071934802   0.752772054755447   0.313577780000003   1.0
H263   H   0.440893731256530   0.468011230978689   0.301806642222225   1.0
H264   H   0.339633813939784   0.620660715139344   0.294375526666670   1.0
H265   H   0.696033081368157   0.531525659540449   0.271391126666664   1.0
H266   H   0.598040003739030   0.683022506904067   0.264013333333331   1.0
H267   H   0.352983710758132   0.469252352567104   0.249602255555558   1.0
H268   H   0.380100186202753   0.596251521038589   0.228453317777777   1.0
H269   H   0.717583640228476   0.493848484703122   0.217046695555553   1.0
H270   H   0.529771729649092   0.424946068160125   0.199462213333334   1.0
H271   H   0.754299056139210   0.255994549108323   0.220599960000001   1.0
H272   H   0.696637978485832   0.303807591293761   0.254257795555553   1.0
H273   H   0.421278899637372   0.183033770664380   0.211346691111110   1.0
H274   H   0.376591301626768   0.236530515171694   0.247822231111108   1.0
H275   H   0.643346104145422   0.751058229543140   0.436220042222224   1.0
H276   H   0.278087421090902   0.778254778299399   0.461271075555558   1.0
H277   H   0.416882781535115   0.646330189563820   0.466653360000002   1.0
H278   H   0.495328233854622   0.928727130761892   0.483284419999997   1.0
H279   H   0.351720060056280   0.102498110943778   0.792253282222219   1.0
H280   H   0.714410921639690   0.146873534252087   0.767599995555557   1.0
H281   H   0.531317703315587   0.245897954705029   0.758657837777776   1.0
H282   H   0.605474481586810   0.959134910110713   0.745746697777776   1.0
H283   H   0.382116711587614   0.026404834951634   0.739659966666665   1.0
H284   H   0.698533454538612   0.077813306861643   0.706413353333332   1.0
H285   H   0.523426050480396   0.186727476328350   0.704255591111114   1.0
H286   H   0.458061508413685   0.891148399318205   0.690906693333332   1.0
H287   H   0.301802442569560   0.026109297915490   0.684108904444443   1.0
H288   H   0.655741332580796   0.970915650924532   0.656768884444446   1.0
H289   H   0.549520664676450   0.282570541995497   0.816066657777775   1.0
H290   H   0.530430483233260   0.095327168699143   0.643962182222225   1.0
H291   H   0.270383956677570   0.944172253046879   0.629555595555559   1.0
H292   H   0.647486827516275   0.884548604091101   0.600011104444441   1.0
H293   H   0.531169766082115   0.026641378843443   0.596826679999999   1.0
H294   H   0.395466608405961   0.762179141543072   0.583091142222223   1.0
H295   H   0.270383956677570   0.903382310711130   0.574404484444443   1.0
H296   H   0.645066956722594   0.805717372444761   0.546980031111111   1.0
H297   H   0.570520169441636   0.965951144870367   0.543331146666667   1.0
H298   H   0.385477645486169   0.707786034180309   0.523973337777775   1.0
H299   H   0.276554783823492   0.860228475946442   0.518037753333331   1.0
H300   H   0.649799240812037   0.797295153004470   0.491984473333332   1.0
H301   H   0.410107057271510   0.810652189846891   0.639533319999998   1.0
H302   H   0.206726957676842   0.839592262317737   0.259633297777775   1.0


# Number_of_total_atoms: 302
# Number_of_atom_type: 2
# Name_of_each_atom: C H
# Number_of_each_atom: 100 202
# Created_by: Lihua Chen (lihua.chen@mse.gatech.edu)
# Tool: VASP
# K-points: 2 2 1
# Pseudopotential: PBE-HSE06
# Material_class: MC_Pol
# Geometry_class: GC_PD
# Bandgap_(eV): 6.20
