#======================================================================

# Note: Disordered slab of polyethylene oxide
# Common_name: Disordered slab-1

#----------------------------------------------------------------------

data_1
_audit_creation_method   'vasp2cif'
_cell_length_a    12.9934388
_cell_length_b    8.7367516
_cell_length_c    45.0
_cell_angle_alpha    90.0
_cell_angle_beta    90.0
_cell_angle_gamma    90.0

_symmetry_space_group_name_H-M    'P 1'
loop_
_atom_site_label
_atom_site_type_symbol
_atom_site_fract_x
_atom_site_fract_y
_atom_site_fract_z
_atom_site_occupancy
C1   C   0.357905345273188   0.156622948968817   0.397022248888888   1.0
C2   C   0.626071290688650   0.781031155790217   0.261259968888886   1.0
C3   C   0.769897811809450   0.798497739136820   0.355742222222226   1.0
C4   C   0.723143299062599   0.900572290506695   0.333466677777778   1.0
C5   C   0.042176625328778   0.657163710594681   0.356117757777781   1.0
C6   C   0.935735395929214   0.714633583035599   0.366484408888887   1.0
C7   C   0.096180673895198   0.309185384187870   0.313388908888889   1.0
C8   C   0.113404805508452   0.457615803109249   0.329457771111109   1.0
C9   C   0.005796864183481   0.010836521894476   0.296246677777781   1.0
C10   C   0.069975147764580   0.048127269636460   0.322002242222226   1.0
C11   C   0.031371179429421   0.100377810901712   0.216826631111111   1.0
C12   C   0.982604997531524   0.056070702525183   0.246175553333330   1.0
C13   C   0.965673575189349   0.454880232602697   0.211646695555558   1.0
C14   C   0.053497616042954   0.359135333548913   0.197653368888886   1.0
C15   C   0.842549887563251   0.494849332788633   0.271666633333332   1.0
C16   C   0.922936490069127   0.596820836705490   0.256768884444448   1.0
C17   C   0.642310148103363   0.232142962608663   0.240184444444445   1.0
C18   C   0.700909115760794   0.335671143494565   0.261937799999998   1.0
C19   C   0.463304625716177   0.144192734059189   0.207346684444445   1.0
C20   C   0.552865227640893   0.240017731533079   0.194753351111110   1.0
C21   C   0.375275388990943   0.059950897539537   0.270271131111109   1.0
C22   C   0.331230082062646   0.139545617847254   0.243760004444447   1.0
C23   C   0.686717437727111   0.891541325267852   0.280737813333332   1.0
C24   C   0.590484214232802   0.749383374937658   0.211313375555555   1.0
C25   C   0.343151745171568   0.589323851212619   0.267246671111110   1.0
C26   C   0.329768021072297   0.683718236878796   0.237719982222224   1.0
C27   C   0.907374943729295   0.000552115960353   0.785719977777781   1.0
C28   C   0.831744441663893   0.007425597403959   0.759404415555558   1.0
C29   C   0.066204029067350   0.303737157869982   0.818226624444442   1.0
C30   C   0.029146964543365   0.133490804522815   0.814237806666668   1.0
C31   C   0.171411020152725   0.594669030077497   0.765693326666664   1.0
C32   C   0.142835089968642   0.516184539342973   0.795828926666665   1.0
C33   C   0.346553238854675   0.489767329541564   0.702600013333331   1.0
C34   C   0.259555653581096   0.577111074097608   0.720315551111113   1.0
C35   C   0.433412538950044   0.543574559221760   0.625815582222224   1.0
C36   C   0.425139278756596   0.460282709651494   0.654811097777781   1.0
C37   C   0.520187003920782   0.190720313028017   0.337900035555556   1.0
C38   C   0.236613335955376   0.445860930737688   0.570024448888887   1.0
C39   C   0.008675186125480   0.514147134502487   0.522117784444447   1.0
C40   C   0.088207457443829   0.431152947051857   0.541251119999998   1.0
C41   C   0.048772338851514   0.734778438704836   0.452660031111108   1.0
C42   C   0.988523407675572   0.674572892744258   0.479739973333331   1.0
C43   C   0.268483028526674   0.608472753191243   0.425226677777779   1.0
C44   C   0.171403393226434   0.532323237849639   0.437873333333336   1.0
C45   C   0.469492256353263   0.653706933821951   0.396384431111109   1.0
C46   C   0.443856294609248   0.555569898542153   0.423788875555559   1.0
C47   C   0.410393313277467   0.574787567498198   0.314964464444444   1.0
C48   C   0.461657617535401   0.658949294151846   0.341766697777779   1.0
C49   C   0.302423389257044   0.556542800186740   0.587924448888892   1.0
C50   C   0.451313981638179   0.086390919023039   0.318059964444444   1.0
C51   C   0.490649272923811   0.657564317154218   0.213844468888887   1.0
C52   C   0.671825275384371   0.340283887663695   0.336275566666664   1.0
C53   C   0.603682975749265   0.503765678767842   0.792088911111108   1.0
C54   C   0.891867124505950   0.450004301369859   0.743744406666664   1.0
C55   C   0.840541166053747   0.525295408421592   0.771199968888887   1.0
C56   C   0.742737842425520   0.246919713271922   0.683862220000002   1.0
C57   C   0.833868536787968   0.329501825369512   0.699348873333335   1.0
C58   C   0.686086226842427   0.269502465882169   0.619199964444448   1.0
C59   C   0.706750602465604   0.121918997903066   0.637426673333330   1.0
C60   C   0.796095711013777   0.613291580820494   0.629142253333335   1.0
C61   C   0.776978239201775   0.505253703218486   0.601864455555557   1.0
C62   C   0.626471454192711   0.739734365344667   0.691880035555556   1.0
C63   C   0.714285205237587   0.474544348954595   0.806906637777779   1.0
C64   C   0.728192101077966   0.715560758302892   0.673035515555554   1.0
C65   C   0.474587158558826   0.888645615150601   0.686133324444441   1.0
C66   C   0.395447115970562   0.015815489134425   0.585862224444448   1.0
C67   C   0.347453662536204   0.999281746776454   0.616375564444446   1.0
C68   C   0.550102279313464   0.754728553802536   0.540288882222221   1.0
C69   C   0.482275600513084   0.886230415432664   0.548217773333334   1.0
C70   C   0.610055576665353   0.896943916775662   0.469371117777776   1.0
C71   C   0.573229259370507   0.771565532434273   0.488388911111109   1.0
C72   C   0.509774079206807   0.120751458700049   0.425475566666670   1.0
C73   C   0.595070913790735   0.000443608812226   0.423066626666667   1.0
C74   C   0.689310992868187   0.338326592689207   0.370220015555553   1.0
C75   C   0.390921778151601   0.915383310199637   0.663935600000002   1.0
C76   C   0.495420634913060   0.889504023440473   0.775962235555554   1.0
C77   C   0.255538210562086   0.093281328955264   0.386542257777776   1.0
C78   C   0.467806774908581   0.353435182934582   0.515944417777774   1.0
C79   C   0.897346620819114   0.303370820340135   0.410304431111108   1.0
C80   C   0.855009991658250   0.221566995220513   0.381588915555554   1.0
C81   C   0.929647584902618   0.116756873344095   0.484604475555557   1.0
C82   C   0.946155947569480   0.230025539469381   0.459042188888887   1.0
C83   C   0.721196231747363   0.152777137443167   0.537582228888887   1.0
C84   C   0.802121567694613   0.057890566557944   0.519755555555555   1.0
C85   C   0.485715844523007   0.711234218905801   0.779546695555553   1.0
C86   C   0.568311392669969   0.318342094102803   0.533388857777780   1.0
C87   C   0.280111982364517   0.069187728766373   0.491028848888888   1.0
C88   C   0.126634690425448   0.874944928043966   0.551417795555558   1.0
C89   C   0.335547853582838   0.227003752744899   0.492697737777775   1.0
C90   C   0.989447027679844   0.142223993183002   0.602113342222225   1.0
C91   C   0.027338474861636   0.991418320740628   0.590388913333335   1.0
C92   C   0.090585796271270   0.430592109314404   0.653351084444445   1.0
C93   C   0.018626300837312   0.370707140168662   0.628337775555558   1.0
C94   C   0.024829485478470   0.850965615183569   0.667802260000002   1.0
C95   C   0.066496453579326   0.713099706302742   0.648815579999997   1.0
C96   C   0.130159492497093   0.104418145526765   0.726873355555554   1.0
C97   C   0.087622631508452   0.053678531961466   0.695311144444446   1.0
C98   C   0.390052177719113   0.091049401015361   0.758044433333332   1.0
C99   C   0.282836465124227   0.140152307866920   0.753582257777779   1.0
C100   C   0.178476178300080   0.905185034675817   0.520857748888886   1.0
H101   H   0.167716824894732   0.416628029117824   0.347411093333335   1.0
H102   H   0.047871907473791   0.339299517225598   0.294942220000003   1.0
H103   H   0.172865746672080   0.277434441423288   0.305059984444448   1.0
H104   H   0.150469804806406   0.024640256454127   0.319179960000000   1.0
H105   H   0.556289909950550   0.736598291291699   0.271808877777779   1.0
H106   H   0.934496162786402   0.075906427281282   0.300880008888889   1.0
H107   H   0.041152893258712   0.982902581320957   0.341013335555559   1.0
H108   H   0.953013246962769   0.937187558359788   0.245551131111114   1.0
H109   H   0.076832454854063   0.013537708912317   0.209653304444444   1.0
H110   H   0.987014961735916   0.885177484043382   0.297580040000000   1.0
H111   H   0.160528650814129   0.532597882260951   0.316564433333333   1.0
H112   H   0.745246831808679   0.949205926834409   0.267115528888887   1.0
H113   H   0.077094325483721   0.627896414040201   0.376615568888887   1.0
H114   H   0.096234693466982   0.741542875042938   0.344626702222222   1.0
H115   H   0.952428421027385   0.793347083371351   0.384944406666669   1.0
H116   H   0.643926340731291   0.920007397257351   0.337873331111112   1.0
H117   H   0.731639979710373   0.688685735325244   0.356155564444443   1.0
H118   H   0.762955669595335   0.854731305397308   0.376102195555554   1.0
H119   H   0.761532074172699   0.009417161408137   0.335044437777775   1.0
H120   H   0.670132159317205   0.678121122271577   0.257435524444446   1.0
H121   H   0.627471997636221   0.973625906910300   0.286271075555554   1.0
H122   H   0.965642751940308   0.099965758440469   0.202315522222221   1.0
H123   H   0.899278418889388   0.621921836486685   0.379275597777777   1.0
H124   H   0.909806724914112   0.119812929098273   0.250222184444446   1.0
H125   H   0.643033836431350   0.397971197899231   0.275388928888887   1.0
H126   H   0.932125751036743   0.531098503475825   0.195637766666664   1.0
H127   H   0.495228337859260   0.977488624032759   0.314040035555557   1.0
H128   H   0.534017276473413   0.125547360188193   0.358828904444444   1.0
H129   H   0.488894502662376   0.303485325140755   0.343580035555554   1.0
H130   H   0.388274511286418   0.055555591165025   0.330797746666669   1.0
H131   H   0.299645171684652   0.049901395846028   0.229337819999998   1.0
H132   H   0.426093429554612   0.965985481377309   0.264577737777778   1.0
H133   H   0.306463720751125   0.008987734068114   0.279228888888888   1.0
H134   H   0.268613963841503   0.211654821455610   0.249291144444442   1.0
H135   H   0.610394070582764   0.174318324444521   0.182742224444446   1.0
H136   H   0.498976260233739   0.055532779482938   0.219833373333330   1.0
H137   H   0.417543021790351   0.093453028926675   0.190868886666664   1.0
H138   H   0.513960915412170   0.315457738320042   0.180282253333331   1.0
H139   H   0.584835024581793   0.173368337495141   0.252535586666667   1.0
H140   H   0.686124692410139   0.137943191609111   0.231646644444446   1.0
H141   H   0.744192561248681   0.257736044595795   0.275684442222221   1.0
H142   H   0.883447359601213   0.686407863535919   0.242917804444446   1.0
H143   H   0.790877500419676   0.545428806743232   0.287024435555559   1.0
H144   H   0.880907539272819   0.408959332207637   0.283722264444442   1.0
H145   H   0.971484238645125   0.655320931866711   0.273222182222220   1.0
H146   H   0.017510376083045   0.329295844922498   0.176008862222226   1.0
H147   H   0.908783277603156   0.367445000954362   0.214764404444445   1.0
H148   H   0.109956926876045   0.443068062047224   0.192015584444448   1.0
H149   H   0.462442659906166   0.605679987513895   0.193315548888890   1.0
H150   H   0.778117352582598   0.205897555791786   0.773326704444443   1.0
H151   H   0.653754439509882   0.666869697886341   0.212491100000001   1.0
H152   H   0.202688544621459   0.359112418853705   0.586195544444443   1.0
H153   H   0.281150991375739   0.373293822385882   0.555651093333331   1.0
H154   H   0.253406188360238   0.622265030403291   0.601735517777776   1.0
H155   H   0.409161714757147   0.338383913764929   0.652857802222222   1.0
H156   H   0.504225294076882   0.512327281915624   0.613742235555556   1.0
H157   H   0.426840021750053   0.668758328896523   0.624646673333331   1.0
H158   H   0.498083763629992   0.478836493417070   0.665593297777775   1.0
H159   H   0.267528870032464   0.697453193015122   0.715155537777775   1.0
H160   H   0.331830462002102   0.359123876201309   0.704364437777777   1.0
H161   H   0.422276218363379   0.503044598406575   0.714475588888888   1.0
H162   H   0.343559535601919   0.639891856373715   0.573797777777777   1.0
H163   H   0.187973410087558   0.556165016755195   0.708808902222223   1.0
H164   H   0.199348120222034   0.708120853521805   0.772853342222220   1.0
H165   H   0.100067466358482   0.611059549867484   0.751488920000000   1.0
H166   H   0.076793989286344   0.580212867674980   0.803731113333335   1.0
H167   H   0.094056578771124   0.063762314130578   0.810195584444443   1.0
H168   H   0.115390623150510   0.311737785929495   0.838115608888891   1.0
H169   H   0.995768541273307   0.360485938503736   0.824097697777781   1.0
H170   H   0.000306508543375   0.090717458420130   0.835384453333333   1.0
H171   H   0.967428345450784   0.909866316904328   0.783771091111113   1.0
H172   H   0.868101298941738   0.965974127042827   0.806482188888886   1.0
H173   H   0.746978405747370   0.354694300797107   0.327517784444446   1.0
H174   H   0.211369602941446   0.517157452433466   0.810631137777776   1.0
H175   H   0.592315900237281   0.816673842483972   0.190171135555559   1.0
H176   H   0.132168206310403   0.355152102527441   0.527528891111110   1.0
H177   H   0.961840809994044   0.578759226713046   0.537306637777775   1.0
H178   H   0.509158430022389   0.571513970936294   0.230015564444443   1.0
H179   H   0.276718123303894   0.522685800063265   0.270159997777775   1.0
H180   H   0.260994810703998   0.756640110953825   0.239664460000000   1.0
H181   H   0.294188571542740   0.601662476016827   0.222604455555555   1.0
H182   H   0.395585693604069   0.497893931195207   0.263511151111111   1.0
H183   H   0.545507652677749   0.681749496002610   0.338602193333337   1.0
H184   H   0.347253730859919   0.493922271980352   0.322148895555557   1.0
H185   H   0.476603506994621   0.494986649271340   0.306106653333330   1.0
H186   H   0.411578519152300   0.757269498196564   0.343506706666666   1.0
H187   H   0.504725569646737   0.471762926165830   0.425246684444446   1.0
H188   H   0.964380622626244   0.428463114368505   0.511562262222220   1.0
H189   H   0.544837983921546   0.714198696000466   0.397822231111114   1.0
H190   H   0.455908608273894   0.627221174515249   0.443233319999997   1.0
H191   H   0.156934567621931   0.420863081422617   0.430168915555555   1.0
H192   H   0.293395594398000   0.718548150092765   0.437835524444445   1.0
H193   H   0.249204082909905   0.658342604132180   0.403277757777779   1.0
H194   H   0.186487860319161   0.499908421340493   0.461537764444444   1.0
H195   H   0.949295855382026   0.765945491685947   0.493804422222219   1.0
H196   H   0.107409479621360   0.815231670315541   0.457231139999997   1.0
H197   H   0.992212915952628   0.810344075708869   0.444255577777781   1.0
H198   H   0.934796506679973   0.594760608737005   0.471188862222221   1.0
H199   H   0.044739341828432   0.366037200828735   0.558355544444446   1.0
H200   H   0.410031615341118   0.745388675122683   0.396693337777776   1.0
H201   H   0.737181130217813   0.440527117653204   0.374188911111112   1.0
H202   H   0.215240833704470   0.804689971957082   0.508946653333332   1.0
H203   H   0.629449888200497   0.434918637265596   0.327933333333334   1.0
H204   H   0.445403198420422   0.840916227949073   0.705197737777780   1.0
H205   H   0.747501869943775   0.835342028037054   0.670382182222220   1.0
H206   H   0.637392281402825   0.832068420029245   0.707271153333330   1.0
H207   H   0.603128980759116   0.632989886080772   0.703971099999997   1.0
H208   H   0.786413816794983   0.674721781033583   0.687668866666669   1.0
H209   H   0.701986574947348   0.543620297044960   0.592255571111110   1.0
H210   H   0.836900697912242   0.721489701046323   0.624891068888886   1.0
H211   H   0.850615296698820   0.557321098610608   0.644484455555556   1.0
H212   H   0.834915172725481   0.532929824856183   0.584015571111109   1.0
H213   H   0.631058446205941   0.073376940234858   0.646802182222224   1.0
H214   H   0.628426440889534   0.349246074479218   0.628644477777776   1.0
H215   H   0.654747348330915   0.227953854153299   0.598733351111115   1.0
H216   H   0.739220674976359   0.032881248449364   0.624417793333336   1.0
H217   H   0.871549177574146   0.221910395163349   0.707791137777775   1.0
H218   H   0.683838831026009   0.319498164512311   0.675477768888889   1.0
H219   H   0.698792647563018   0.168961573773025   0.697888862222221   1.0
H220   H   0.880799800280741   0.392374186305126   0.683233304444443   1.0
H221   H   0.896407731569873   0.578896554641659   0.786048888888892   1.0
H222   H   0.937097637309073   0.352542494169114   0.750666639999999   1.0
H223   H   0.935819946294743   0.543883587121783   0.731833311111110   1.0
H224   H   0.793586721630611   0.621944545155664   0.763977813333334   1.0
H225   H   0.619668174371206   0.350848489271456   0.383751084444441   1.0
H226   H   0.343236295537096   0.006944869532518   0.671362219999999   1.0
H227   H   0.508396568581986   0.998995542004423   0.692413331111112   1.0
H228   H   0.295481531802032   0.900286074288758   0.615306684444441   1.0
H229   H   0.216756914266604   0.010355794023034   0.401071082222224   1.0
H230   H   0.255253436064976   0.030798105785678   0.365122224444441   1.0
H231   H   0.871880052261453   0.027764976172605   0.739860026666669   1.0
H232   H   0.800013034270805   0.893544346619628   0.757306671111110   1.0
H233   H   0.206213346693104   0.187091950742882   0.381924437777776   1.0
H234   H   0.392707371662070   0.241871979054551   0.381148868888886   1.0
H235   H   0.326781659986729   0.221933218291340   0.415908897777776   1.0
H236   H   0.601320491077388   0.967336189345247   0.400562202222225   1.0
H237   H   0.528329621254692   0.233722565718821   0.415819973333335   1.0
H238   H   0.492781002670363   0.144810778413344   0.448062217777775   1.0
H239   H   0.614280863046048   0.488267950756438   0.767440033333337   1.0
H240   H   0.669216166239224   0.051366494155559   0.429797786666669   1.0
H241   H   0.692551012746527   0.888130618249463   0.470957777777777   1.0
H242   H   0.584480961267928   0.005846097306922   0.478693306666663   1.0
H243   H   0.603598425383744   0.666400541821517   0.479924435555553   1.0
H244   H   0.530438454829984   0.989467034864539   0.547311146666665   1.0
H245   H   0.513814710852373   0.642318410426135   0.537920040000003   1.0
H246   H   0.595325165190296   0.744404304684593   0.561460028888888   1.0
H247   H   0.427448044008180   0.909557185991190   0.530515546666663   1.0
H248   H   0.304970828815541   0.103754351903518   0.622073364444446   1.0
H249   H   0.462858084959002   0.094174120733847   0.589399973333336   1.0
H250   H   0.338641668901381   0.070526864927693   0.571857791111114   1.0
H251   H   0.487809116398040   0.770695552337784   0.489935557777777   1.0
H252   H   0.701794277893548   0.396941078192036   0.825106642222224   1.0
H253   H   0.346384130427431   0.818619668664951   0.661775546666668   1.0
H254   H   0.550856506131389   0.432606485000676   0.802702246666669   1.0
H255   H   0.119354038901541   0.945211227019435   0.505255551111112   1.0
H256   H   0.365732357164759   0.268460900273276   0.472277746666670   1.0
H257   H   0.335132136074712   0.980933828998872   0.486359999999998   1.0
H258   H   0.219335192466524   0.077829327321155   0.473886702222224   1.0
H259   H   0.286938750964062   0.313637874287281   0.502340019999998   1.0
H260   H   0.613395708609488   0.418505191334503   0.539453295555553   1.0
H261   H   0.481721597826741   0.406303883012996   0.495399984444447   1.0
H262   H   0.412278718702240   0.426769109470847   0.527815586666669   1.0
H263   H   0.872472512819314   0.023220998980904   0.532613373333334   1.0
H264   H   0.760993340731325   0.245477529657592   0.548142242222220   1.0
H265   H   0.691858432426677   0.074349853325352   0.553208924444448   1.0
H266   H   0.770259517441986   0.959404213804135   0.510468888888887   1.0
H267   H   0.958531501298950   0.347345986121432   0.466391075555556   1.0
H268   H   0.984944886183634   0.127550392985881   0.502468873333335   1.0
H269   H   0.927546678405101   0.000455077605729   0.477013313333330   1.0
H270   H   0.020596556779104   0.199957144254853   0.447635566666669   1.0
H271   H   0.883501379173005   0.290116477616237   0.363226657777780   1.0
H272   H   0.849222516829030   0.400615189746269   0.415273371111113   1.0
H273   H   0.976632867967176   0.353675546870306   0.408608924444444   1.0
H274   H   0.880276628539626   0.106856145480890   0.378657786666665   1.0
H275   H   0.743045813245374   0.575577311823764   0.817937724444448   1.0
H276   H   0.057561436315076   0.803213301840927   0.546706644444441   1.0
H277   H   0.179992258862221   0.815323145961941   0.565786660000001   1.0
H278   H   0.542506030043413   0.266240326667870   0.554357742222223   1.0
H279   H   0.479058769261300   0.658663089379807   0.758028920000001   1.0
H280   H   0.509912649144120   0.931373223430093   0.797973293333335   1.0
H281   H   0.957684797037714   0.922330903856761   0.586948904444448   1.0
H282   H   0.426955403060809   0.661902199439893   0.794202253333331   1.0
H283   H   0.551587536626563   0.920556674634085   0.759497748888890   1.0
H284   H   0.237459747761306   0.110038174829192   0.774451106666667   1.0
H285   H   0.423061268430338   0.163730899708767   0.775742257777779   1.0
H286   H   0.436314057214787   0.080679414074218   0.736602188888888   1.0
H287   H   0.012407846951184   0.100538053525526   0.692120022222220   1.0
H288   H   0.093794992900570   0.064002678066295   0.746499973333336   1.0
H289   H   0.117283670893961   0.230517724688433   0.731979964444442   1.0
H290   H   0.137109269333692   0.097836752048664   0.677739971111109   1.0
H291   H   0.280266121698283   0.260883679009481   0.749646675555553   1.0
H292   H   0.922536334261260   0.114707999710099   0.616346655555553   1.0
H293   H   0.936366314358601   0.848527718242558   0.672177802222222   1.0
H294   H   0.028000216540058   0.952948690907043   0.652542199999999   1.0
H295   H   0.149076732481319   0.718548150092765   0.646420033333335   1.0
H296   H   0.944124037433419   0.343385669795168   0.636644406666669   1.0
H297   H   0.165515806331420   0.449729553945424   0.647384473333332   1.0
H298   H   0.094310530019200   0.345514664741067   0.670437791111112   1.0
H299   H   0.017117854897656   0.453804363626411   0.610922242222223   1.0
H300   H   0.070436965462911   0.930812374246742   0.606622228888888   1.0
H301   H   0.029616409167986   0.712378625941476   0.627455562222224   1.0
H302   H   0.966435436629752   0.202486631301269   0.582502237777774   1.0
O303   O   0.021304683406825   0.527790626438318   0.338251071111110   1.0
O304   O   0.051288962857164   0.203058937832225   0.331744471111108   1.0
O305   O   0.056799290115563   0.060500277929385   0.268282233333331   1.0
O306   O   0.088584717080437   0.238747259336066   0.218495517777775   1.0
O307   O   0.415780624602625   0.165482099777222   0.292411126666664   1.0
O308   O   0.780110512391836   0.421847348847599   0.248453353333332   1.0
O309   O   0.600781757636014   0.326434300821830   0.218004440000001   1.0
O310   O   0.398856536731444   0.228171303393815   0.227439964444443   1.0
O311   O   0.871356588065048   0.779611898316993   0.345446693333336   1.0
O312   O   0.998831525646622   0.527332824707983   0.237971073333334   1.0
O313   O   0.726321957201968   0.815540583756551   0.306353335555556   1.0
O314   O   0.251051330614651   0.517706844269213   0.750408851111111   1.0
O315   O   0.420105738290005   0.761641878429963   0.227120040000003   1.0
O316   O   0.377499603876998   0.672524007664357   0.292522259999998   1.0
O317   O   0.454592451691852   0.571960406886241   0.369164446666666   1.0
O318   O   0.344090634420816   0.493189722825583   0.425519986666664   1.0
O319   O   0.076632523177778   0.612490264688311   0.432440015555557   1.0
O320   O   0.055390956241702   0.609319818592532   0.500611115555557   1.0
O321   O   0.148568829985180   0.531224465624042   0.558442264444444   1.0
O322   O   0.356650850581602   0.465536412869973   0.608768886666667   1.0
O323   O   0.350593862804047   0.531132886964535   0.671935526666665   1.0
O324   O   0.617074334471027   0.216759739397879   0.323848895555557   1.0
O325   O   0.612287410781512   0.856391144278383   0.233962251111109   1.0
O326   O   0.748171538699978   0.210247009884085   0.379953342222222   1.0
O327   O   0.752920004517975   0.117214675074429   0.763431124444445   1.0
O328   O   0.833837713538927   0.159782052176006   0.497500017777774   1.0
O329   O   0.109887638059298   0.367445000954362   0.791637760000000   1.0
O330   O   0.423407412362614   0.050427850094763   0.410617744444444   1.0
O331   O   0.581063905884562   0.870400733380130   0.439242215555552   1.0
O332   O   0.620707175686242   0.799207270583267   0.516111077777779   1.0
O333   O   0.427863461364822   0.872106207071290   0.575351124444445   1.0
O334   O   0.431103781394654   0.969865779404785   0.637068855555555   1.0
O335   O   0.547277684487959   0.783240260602120   0.672231124444444   1.0
O336   O   0.711345236797513   0.620193448100324   0.647186702222221   1.0
O337   O   0.780218259080115   0.343957987772022   0.608233304444447   1.0
O338   O   0.781426661277692   0.151392160445539   0.661131117777778   1.0
O339   O   0.874273367878565   0.213303077084163   0.435313331111111   1.0
O340   O   0.809994972231678   0.411923809302301   0.725117746666669   1.0
O341   O   0.583049723526614   0.657484195842308   0.793459997777781   1.0
O342   O   0.397555949545861   0.936031590963395   0.769495562222225   1.0
O343   O   0.236628605200345   0.069176271418776   0.729173364444442   1.0
O344   O   0.082651037691420   0.890992047891118   0.694071113333337   1.0
O345   O   0.036643109443823   0.568858521741653   0.662697771111112   1.0
O346   O   0.053874875679561   0.226568877155671   0.620033351111111   1.0
O347   O   0.085313866256868   0.014602212108215   0.562746684444441   1.0
O348   O   0.243170299151295   0.032080046776194   0.519680024444447   1.0
O349   O   0.422045170982756   0.210727749201432   0.512024433333330   1.0
O350   O   0.639054858980060   0.205611465478775   0.518928866666670   1.0
O351   O   0.790831407925666   0.413903915958876   0.787464482222219   1.0
O352   O   0.964218856366180   0.133811289770442   0.789095562222222   1.0


# Number_of_total_atoms: 352
# Number_of_atom_type: 3
# Name_of_each_atom: C H O
# Number_of_each_atom: 100 202 50
# Created_by: Lihua Chen (lihua.chen@mse.gatech.edu)
# Tool: VASP
# K-points: 1 1 1
# Pseudopotential: PBE-HSE06
# Material_class: MC_Pol
# Geometry_class: GC_PD
# Bandgap_(eV): 4.94
