#======================================================================

# Note: Disordered slab of polyethylene oxide
# Common_name: Disordered slab-2

#----------------------------------------------------------------------

data_1
_audit_creation_method   'vasp2cif'
_cell_length_a    12.5141449
_cell_length_b    8.7634955
_cell_length_c    45.0
_cell_angle_alpha    90.0
_cell_angle_beta    90.0
_cell_angle_gamma    90.0

_symmetry_space_group_name_H-M    'P 1'
loop_
_atom_site_label
_atom_site_type_symbol
_atom_site_fract_x
_atom_site_fract_y
_atom_site_fract_z
_atom_site_occupancy
C1   C   0.237297396164877   0.038061022567994   0.343671077777778   1.0
C2   C   0.605728442540247   0.646642449921949   0.230228848888892   1.0
C3   C   0.696553705399403   0.770634001010215   0.332088893333335   1.0
C4   C   0.648543761068325   0.831636964953084   0.303508928888888   1.0
C5   C   0.952240324466757   0.566560112913848   0.346591102222220   1.0
C6   C   0.837378237485488   0.612728904807447   0.349966684444446   1.0
C7   C   0.077158480081209   0.345894751700392   0.285693360000003   1.0
C8   C   0.069247512069325   0.455348781773210   0.312368859999999   1.0
C9   C   0.980264644370550   0.957317453977126   0.271411133333331   1.0
C10   C   0.028581553342889   0.111798631037125   0.265473346666667   1.0
C11   C   0.907435065739094   0.606635445867461   0.224937777777775   1.0
C12   C   0.922242230070388   0.713795916252820   0.252466668888886   1.0
C13   C   0.959935472698575   0.440731395366150   0.166753302222219   1.0
C14   C   0.014429471725229   0.430826614790867   0.196037802222222   1.0
C15   C   0.968677716045946   0.764917058495662   0.114042240000003   1.0
C16   C   0.956363466751931   0.595863545545271   0.122733306666667   1.0
C17   C   0.862997135345623   0.031225816228236   0.174797737777780   1.0
C18   C   0.942930795055759   0.921464249054502   0.159224446666670   1.0
C19   C   0.641080286676242   0.212009853830587   0.145917766666663   1.0
C20   C   0.743428454308535   0.110543469783259   0.137322235555558   1.0
C21   C   0.462826189586472   0.077839613200005   0.183144464444446   1.0
C22   C   0.584440579715519   0.083077283488080   0.189488900000001   1.0
C23   C   0.614766071631472   0.774719014804084   0.252815586666664   1.0
C24   C   0.656982395976570   0.617749812275250   0.178702206666664   1.0
C25   C   0.317526433627918   0.677440594338186   0.146548886666665   1.0
C26   C   0.422647655294448   0.744183356972115   0.134306675555557   1.0
C27   C   0.199652003390177   0.491886713469526   0.813168844444448   1.0
C28   C   0.092748742265243   0.447634942016002   0.799722293333332   1.0
C29   C   0.368628582844678   0.658464171060508   0.760464477777781   1.0
C30   C   0.363194667819449   0.565476116236951   0.789724393333330   1.0
C31   C   0.391706412157653   0.498699063632770   0.681135560000001   1.0
C32   C   0.363730253754696   0.613904314779418   0.705904473333334   1.0
C33   C   0.375340955177847   0.573303997246306   0.598668924444446   1.0
C34   C   0.384858385330027   0.482518317034568   0.628446706666665   1.0
C35   C   0.290021549934266   0.658258705102320   0.535117764444443   1.0
C36   C   0.379064765344054   0.554681359738247   0.546102226666669   1.0
C37   C   0.346118039595339   0.227825506386125   0.237119971111113   1.0
C38   C   0.039337198341052   0.509893306843139   0.510982262222221   1.0
C39   C   0.022963822322367   0.649301012364305   0.431999971111111   1.0
C40   C   0.984212201346651   0.559553821873934   0.460175577777775   1.0
C41   C   0.267375360181418   0.656809614382752   0.386386702222225   1.0
C42   C   0.175583175483290   0.723164312687786   0.404766675555557   1.0
C43   C   0.378049985660624   0.523563605412932   0.330786644444444   1.0
C44   C   0.312020584003307   0.442306086652294   0.355993313333336   1.0
C45   C   0.275430213373987   0.672819082294275   0.259042188888891   1.0
C46   C   0.356913935046414   0.644120579510769   0.283235593333330   1.0
C47   C   0.208881367515573   0.702921180252787   0.192064413333334   1.0
C48   C   0.202328726431801   0.807297499040196   0.219426644444447   1.0
C49   C   0.145169591251893   0.474462216589259   0.526115586666670   1.0
C50   C   0.320347337515649   0.247132847845933   0.202608913333336   1.0
C51   C   0.559436833754418   0.602573174140389   0.158862220000003   1.0
C52   C   0.490914213403428   0.238597395297347   0.268362257777781   1.0
C53   C   0.723490999373034   0.826992813541125   0.757191128888891   1.0
C54   C   0.796608340374895   0.514069631233333   0.687526702222222   1.0
C55   C   0.801123183414632   0.611701940167599   0.714591133333336   1.0
C56   C   0.710705483360670   0.256364244153488   0.645246633333336   1.0
C57   C   0.796784221349398   0.257037537133442   0.669386631111109   1.0
C58   C   0.660674202358003   0.331197499901719   0.575717755555559   1.0
C59   C   0.667298786032113   0.183927395181520   0.594173346666665   1.0
C60   C   0.765931070528040   0.668266127368923   0.572815535555556   1.0
C61   C   0.743180934400080   0.529805395575316   0.551411100000003   1.0
C62   C   0.626864501145420   0.808221628002208   0.641333346666670   1.0
C63   C   0.705767215465116   0.650910073497499   0.759806653333335   1.0
C64   C   0.721077953955927   0.759998895417930   0.620571137777780   1.0
C65   C   0.453884276184141   0.926679063166063   0.644666628888892   1.0
C66   C   0.376787374421404   0.140896620532296   0.553602262222221   1.0
C67   C   0.317718168662090   0.093130292587013   0.581159973333335   1.0
C68   C   0.527377160224511   0.876345152456572   0.501728906666663   1.0
C69   C   0.468028127115581   0.022450721860928   0.512626648888890   1.0
C70   C   0.546371482401483   0.876721680292981   0.418355560000002   1.0
C71   C   0.496883410707511   0.911000433559870   0.447257742222220   1.0
C72   C   0.422287950333704   0.092947796915055   0.355782233333336   1.0
C73   C   0.494358499876405   0.072727509245595   0.383555517777779   1.0
C74   C   0.599503494641489   0.314834132110867   0.275479973333333   1.0
C75   C   0.356809980680339   0.965145346397449   0.626357777777777   1.0
C76   C   0.588339975190792   0.160728946571602   0.750504473333336   1.0
C77   C   0.122930660647853   0.061259471177912   0.354055533333330   1.0
C78   C   0.433587116287903   0.471540962165157   0.451944477777779   1.0
C79   C   0.798725992057193   0.183722054744024   0.330044471111108   1.0
C80   C   0.757420804676791   0.257220135504149   0.301066675555553   1.0
C81   C   0.743332738619642   0.316317512800687   0.406399960000002   1.0
C82   C   0.802761337692360   0.232994608144658   0.381377751111110   1.0
C83   C   0.686940559558330   0.308307010598682   0.477235582222221   1.0
C84   C   0.768096588045744   0.217817992831740   0.455608877777777   1.0
C85   C   0.662096544846627   0.059582069734617   0.731597817777775   1.0
C86   C   0.521415889950262   0.439715750410322   0.474093373333332   1.0
C87   C   0.241141006765872   0.147880158094452   0.440284475555558   1.0
C88   C   0.118871222275843   0.955799806138998   0.508351137777780   1.0
C89   C   0.289254593815677   0.305077671347007   0.436697811111110   1.0
C90   C   0.956507351932615   0.132509601904857   0.566362253333331   1.0
C91   C   0.005871044373158   0.009453716271096   0.547031148888891   1.0
C92   C   0.068688145044575   0.454995110113309   0.609879982222225   1.0
C93   C   0.983556814976630   0.349591929384800   0.596364424444445   1.0
C94   C   0.045290549576421   0.785764812682338   0.654766677777779   1.0
C95   C   0.094203096529590   0.628921199309112   0.647082179999998   1.0
C96   C   0.159792939587909   0.109938733921872   0.698326704444447   1.0
C97   C   0.102489919227324   0.038494571030476   0.670748902222222   1.0
C98   C   0.436479962765972   0.099280886262797   0.723073324444442   1.0
C99   C   0.318405566807847   0.123597610108888   0.724946680000002   1.0
C100   C   0.138417280113160   0.989233873629537   0.475040011111112   1.0
H101   H   0.099980550808553   0.395909063911766   0.331600022222226   1.0
H102   H   0.029931953241167   0.400781526047453   0.267977735555554   1.0
H103   H   0.159864874187292   0.324145519330727   0.280613368888886   1.0
H104   H   0.977883307072780   0.162109696981076   0.248646631111114   1.0
H105   H   0.523461303376791   0.589507600021022   0.229762184444446   1.0
H106   H   0.906364197524994   0.955001038113160   0.283091142222226   1.0
H107   H   0.108083565501950   0.092479958482322   0.254317813333330   1.0
H108   H   0.978346646761295   0.652188102338847   0.265062204444448   1.0
H109   H   0.860983422047475   0.509151570854350   0.234313371111114   1.0
H110   H   0.033703621251817   0.884013291271728   0.284404415555557   1.0
H111   H   0.115603136415658   0.554350441556110   0.307602182222219   1.0
H112   H   0.681698387558228   0.855953802908900   0.245675575555559   1.0
H113   H   0.973152636262029   0.491806836666946   0.365175544444448   1.0
H114   H   0.995123318413867   0.675249756218854   0.344777764444444   1.0
H115   H   0.820789033695782   0.656649860777584   0.372082180000000   1.0
H116   H   0.563576125764691   0.860986018649747   0.307817755555554   1.0
H117   H   0.650557778022851   0.683613930080753   0.341753302222223   1.0
H118   H   0.700053776746664   0.858532705357128   0.349382188888889   1.0
H119   H   0.690024837414178   0.930524457963152   0.298120033333333   1.0
H120   H   0.669568249924929   0.566069532414318   0.232546657777775   1.0
H121   H   0.541025659691698   0.832914993794425   0.259566668888887   1.0
H122   H   0.853695828629888   0.644052010981234   0.207624477777777   1.0
H123   H   0.784486121780482   0.502613015548420   0.347217815555552   1.0
H124   H   0.847470880731130   0.710075893802880   0.266064453333335   1.0
H125   H   0.016155422652972   0.987625017893834   0.154191079999997   1.0
H126   H   0.980688053244450   0.337279525047968   0.156060028888888   1.0
H127   H   0.247773517469817   0.182923286718179   0.196171146666664   1.0
H128   H   0.341331583910296   0.098915666699433   0.240584480000002   1.0
H129   H   0.296590045077707   0.303982252287341   0.250955540000000   1.0
H130   H   0.303638341282109   0.371272730156591   0.199424404444443   1.0
H131   H   0.598952054646581   0.081377025868271   0.213897791111108   1.0
H132   H   0.429320096813008   0.993535878463106   0.198048911111108   1.0
H133   H   0.444031233808076   0.030039097983220   0.162566631111112   1.0
H134   H   0.613990884826656   0.975883184968829   0.181304422222219   1.0
H135   H   0.729140734178330   0.993159350626698   0.131811102222223   1.0
H136   H   0.574259844154433   0.160283861616634   0.136173333333332   1.0
H137   H   0.652930884634394   0.333411182786591   0.142555575555555   1.0
H138   H   0.762183175615938   0.143087572761345   0.114844428888887   1.0
H139   H   0.907051284023410   0.064796895257146   0.193039957777778   1.0
H140   H   0.800476027730831   0.968306242640281   0.182908884444444   1.0
H141   H   0.965385241783480   0.833257357181274   0.174139997777779   1.0
H142   H   0.868406965624956   0.585696392495436   0.119588895555559   1.0
H143   H   0.957754101121203   0.782090502585412   0.090680015555556   1.0
H144   H   0.057069212935197   0.787157110995267   0.118095566666668   1.0
H145   H   0.998515783527488   0.510361145275880   0.108697764444443   1.0
H146   H   0.972561265452505   0.329645562093347   0.207317775555559   1.0
H147   H   0.875071488104631   0.458680854003973   0.166359966666668   1.0
H148   H   0.097311762787726   0.394494137641765   0.190962220000003   1.0
H149   H   0.578646967720502   0.545016198159743   0.138282182222220   1.0
H150   H   0.159129626188040   0.539196648186788   0.765699937777775   1.0
H151   H   0.684711026480123   0.506549812229608   0.185002222222224   1.0
H152   H   0.983336728025257   0.577103896498834   0.521964433333331   1.0
H153   H   0.998012505033401   0.403679935706023   0.506815593333336   1.0
H154   H   0.198461334741296   0.432469840373628   0.508642240000000   1.0
H155   H   0.378521564026322   0.457653775254407   0.530822244444444   1.0
H156   H   0.299467037496107   0.692411652405141   0.510784404444443   1.0
H157   H   0.300233993614697   0.763342390031468   0.548911115555555   1.0
H158   H   0.456593003010539   0.618194897230218   0.542853293333330   1.0
H159   H   0.315784324984122   0.407787908375148   0.628528848888891   1.0
H160   H   0.438957015752628   0.651640284404778   0.597113293333337   1.0
H161   H   0.301848374793870   0.636155561442351   0.599991102222219   1.0
H162   H   0.122946810372959   0.385331093055278   0.541806708888892   1.0
H163   H   0.458694816615079   0.426319246697851   0.630593364444444   1.0
H164   H   0.332709444654107   0.406681066932713   0.679444462222222   1.0
H165   H   0.474197290140054   0.453408893745653   0.683277808888889   1.0
H166   H   0.278586425829225   0.648513780830946   0.703371091111109   1.0
H167   H   0.431309725365253   0.485268395470733   0.793106588888890   1.0
H168   H   0.433946821248647   0.749603637041865   0.762339953333331   1.0
H169   H   0.290309304313716   0.726062710935381   0.755962286666666   1.0
H170   H   0.363458649100345   0.642363289853918   0.810431077777778   1.0
H171   H   0.218047027727799   0.429423110903635   0.833984375555559   1.0
H172   H   0.191469127067563   0.615444704684336   0.817919922222224   1.0
H173   H   0.427122567519575   0.267592651813423   0.285580022222220   1.0
H174   H   0.416526342123461   0.713465089358465   0.700848897777774   1.0
H175   H   0.720214674835674   0.672339821478772   0.166184404444444   1.0
H176   H   0.969061194105237   0.436920073730853   0.455075582222221   1.0
H177   H   0.019827723107156   0.773007437500254   0.432595571111108   1.0
H178   H   0.493031873076681   0.529714096389959   0.167117817777779   1.0
H179   H   0.245511972615887   0.702293702324603   0.132491133333332   1.0
H180   H   0.406561729998828   0.861590857209890   0.126906671111108   1.0
H181   H   0.446069023861149   0.691829886829979   0.113277775555552   1.0
H182   H   0.322393054598564   0.551600351708970   0.146391126666664   1.0
H183   H   0.199004544049991   0.921897797516984   0.211906688888888   1.0
H184   H   0.138545007577782   0.717584279012868   0.178022257777776   1.0
H185   H   0.210655487935100   0.584281352115717   0.199702199999997   1.0
H186   H   0.130897717190407   0.764928378179690   0.230446624444447   1.0
H187   H   0.433858720942254   0.604364730945548   0.273568895555556   1.0
H188   H   0.984451802216228   0.611439464994305   0.411846671111114   1.0
H189   H   0.205884886309733   0.693461587331221   0.272533333333335   1.0
H190   H   0.373806739284276   0.754624316290226   0.294835577777775   1.0
H191   H   0.284667800194640   0.336184003289553   0.345540026666669   1.0
H192   H   0.447603239754720   0.446893320136923   0.327506679999999   1.0
H193   H   0.418116646547702   0.622040280616339   0.338460033333334   1.0
H194   H   0.365879917212723   0.394870665478173   0.373666637777781   1.0
H195   H   0.185116451704182   0.845387254435174   0.411815560000001   1.0
H196   H   0.338095198178500   0.630267557049578   0.400400035555556   1.0
H197   H   0.297205492642171   0.734746392007615   0.370475515555555   1.0
H198   H   0.112414600537349   0.714822983591425   0.387177786666669   1.0
H199   H   0.913268312883289   0.609944661921716   0.468206702222226   1.0
H200   H   0.267718899435152   0.558697930523273   0.249457804444447   1.0
H201   H   0.644005136939079   0.280498472327622   0.254351128888892   1.0
H202   H   0.174935708152141   0.879608770267524   0.464984471111109   1.0
H203   H   0.503931403255528   0.117127611921525   0.265371111111108   1.0
H204   H   0.426203503525038   0.853523334381812   0.662031131111114   1.0
H205   H   0.765507661654134   0.861910364420226   0.614884439999997   1.0
H206   H   0.666212063758344   0.879243562115143   0.659602186666667   1.0
H207   H   0.589330981775667   0.712985828542962   0.653042264444444   1.0
H208   H   0.781305824579356   0.696234407834183   0.632895575555558   1.0
H209   H   0.657469820410981   0.549580586878832   0.544971126666667   1.0
H210   H   0.765571373558252   0.769778212358297   0.561351097777781   1.0
H211   H   0.838504890573866   0.650305234937363   0.584348891111112   1.0
H212   H   0.800843651730453   0.529679920529425   0.532702213333330   1.0
H213   H   0.588084224596123   0.150687257156690   0.603895568888888   1.0
H214   H   0.629349481161910   0.409796250822517   0.592044406666666   1.0
H215   H   0.605536707506083   0.316910928978054   0.558506691111113   1.0
H216   H   0.693828517200565   0.096177033467981   0.580688899999998   1.0
H217   H   0.823713580302240   0.145095903797746   0.679113346666668   1.0
H218   H   0.694419888010088   0.378005203517247   0.638784451111114   1.0
H219   H   0.634359987313239   0.223295282116595   0.653342184444448   1.0
H220   H   0.876381957188300   0.279197598720742   0.660895537777776   1.0
H221   H   0.868103357185838   0.588925617637393   0.728675588888891   1.0
H222   H   0.871315977810035   0.510646362515963   0.674679988888890   1.0
H223   H   0.734334744677604   0.547469625562080   0.670506626666665   1.0
H224   H   0.818935059637994   0.729383360783373   0.707886675555557   1.0
H225   H   0.600965767944722   0.441940981198655   0.278726704444445   1.0
H226   H   0.302846996761239   0.032036006636851   0.641224417777778   1.0
H227   H   0.484945016099346   0.029662456037094   0.655800035555558   1.0
H228   H   0.274862615663018   0.989792999836652   0.578735522222225   1.0
H229   H   0.066306807746805   0.052381757941227   0.334793344444442   1.0
H230   H   0.117560761183128   0.184897339195302   0.362131077777775   1.0
H231   H   0.085668745932452   0.336617665861759   0.792073397777777   1.0
H232   H   0.027470746323225   0.471244311131329   0.813964504444442   1.0
H233   H   0.093132523980927   0.990922811565319   0.371880002222220   1.0
H234   H   0.243929906868829   0.916603095191867   0.340166642222222   1.0
H235   H   0.251377223544857   0.089958088071136   0.322719997777774   1.0
H236   H   0.578199474100707   0.100399161498970   0.379653337777775   1.0
H237   H   0.444430861592465   0.001306750257363   0.341195593333332   1.0
H238   H   0.447091730574414   0.199081188550849   0.346226671111111   1.0
H239   H   0.727510498939480   0.860278663918983   0.778657702222219   1.0
H240   H   0.466046417602214   0.145837651197517   0.401026662222222   1.0
H241   H   0.550766532997393   0.750984170642866   0.414213308888890   1.0
H242   H   0.621302858655568   0.918645716198519   0.415468853333330   1.0
H243   H   0.418923837137285   0.850761833562878   0.449355571111113   1.0
H244   H   0.509501276431600   0.136971257644852   0.509373306666667   1.0
H245   H   0.469091068299839   0.791025339146920   0.502704451111114   1.0
H246   H   0.594373188055386   0.858544025041148   0.516244422222222   1.0
H247   H   0.393112900586601   0.031990305694798   0.500773366666664   1.0
H248   H   0.255684485481701   0.165567130148013   0.589984471111109   1.0
H249   H   0.434633907747063   0.231123174536918   0.557960002222224   1.0
H250   H   0.321777599043145   0.182740676936504   0.537520006666668   1.0
H251   H   0.479231577380887   0.038083764634784   0.448406644444447   1.0
H252   H   0.629045872722791   0.629628554039883   0.770457797777780   1.0
H253   H   0.331582487909344   0.856581497645543   0.618760004444447   1.0
H254   H   0.804511373365990   0.858156177520719   0.751497819999997   1.0
H255   H   0.056821381379400   0.013721339846640   0.465053306666668   1.0
H256   H   0.291939539552558   0.327580199019898   0.413991122222221   1.0
H257   H   0.293026261826327   0.057767759451693   0.431484477777779   1.0
H258   H   0.167991661979237   0.141067807931208   0.426235537777778   1.0
H259   H   0.248100906998445   0.397962993191470   0.448459964444446   1.0
H260   H   0.548752811708290   0.542574318660861   0.483222200000000   1.0
H261   H   0.457432205375852   0.521441119014668   0.429742262222220   1.0
H262   H   0.369779312687996   0.537975651382489   0.464871133333332   1.0
H263   H   0.845273359428660   0.178587106024075   0.465924413333333   1.0
H264   H   0.727326682944195   0.393410038266126   0.490142228888885   1.0
H265   H   0.658292865060240   0.235185560373715   0.495606655555555   1.0
H266   H   0.725289196547500   0.116283142953634   0.449055566666665   1.0
H267   H   0.877388817832852   0.283853275214213   0.377088928888888   1.0
H268   H   0.667650252315681   0.250248031735737   0.408940039999997   1.0
H269   H   0.711896152009558   0.425486314222446   0.400006697777776   1.0
H270   H   0.817201181680417   0.109242596176379   0.386382208888890   1.0
H271   H   0.776151441238305   0.376008294863617   0.300535584444447   1.0
H272   H   0.882598978057224   0.203599967615659   0.333182186666669   1.0
H273   H   0.785844448708595   0.058965911490454   0.329997764444443   1.0
H274   H   0.795441740489998   0.203326058648628   0.281497786666670   1.0
H275   H   0.772811404796826   0.610241312955544   0.771431139999997   1.0
H276   H   0.076047673061545   0.847612485223507   0.508291120000003   1.0
H277   H   0.191581000472510   0.939539182738216   0.521404435555553   1.0
H278   H   0.481317225278410   0.374855843766909   0.492728848888888   1.0
H279   H   0.744523407268524   0.098048455664752   0.734593371111110   1.0
H280   H   0.619808277911183   0.163638778612942   0.772280035555553   1.0
H281   H   0.948524433339429   0.921795064537889   0.540197753333331   1.0
H282   H   0.649079347003564   0.079471416399997   0.707424417777780   1.0
H283   H   0.588436002527025   0.274587611758342   0.740786657777775   1.0
H284   H   0.284731512098759   0.051274916498791   0.741928864444446   1.0
H285   H   0.464368324518922   0.182934709100955   0.706895531111108   1.0
H286   H   0.451271265046643   0.988617715385374   0.713517762222224   1.0
H287   H   0.019599709125949   0.072350981409187   0.671244473333331   1.0
H288   H   0.114907811240066   0.067934923912496   0.717504460000001   1.0
H289   H   0.158610197968862   0.233953129775671   0.698195564444447   1.0
H290   H   0.134765412537298   0.074188147868618   0.649793328888890   1.0
H291   H   0.290189511869883   0.229719682060654   0.733895535555554   1.0
H292   H   0.909049151252837   0.091909398481462   0.583977762222219   1.0
H293   H   0.971418454648067   0.785148665849150   0.665748853333334   1.0
H294   H   0.033951452807614   0.861818951125152   0.633964453333334   1.0
H295   H   0.115275443230644   0.571626595803011   0.666704475555555   1.0
H296   H   0.943306346085222   0.315438867972262   0.614531115555558   1.0
H297   H   0.102601792632271   0.535864587366994   0.591868931111108   1.0
H298   H   0.134341692016051   0.383973187411350   0.618484413333334   1.0
H299   H   0.923888311377951   0.402070977271570   0.583628931111114   1.0
H300   H   0.060585130351178   0.948439638041691   0.560413359999998   1.0
H301   H   0.170141333428226   0.648468068477925   0.637606642222224   1.0
H302   H   0.910495570496394   0.205471298524657   0.551780022222225   1.0
O303   O   0.961765370001430   0.494762266951582   0.318033346666667   1.0
O304   O   0.026655628703807   0.198544895698298   0.291459995555556   1.0
O305   O   0.962085144147565   0.865812779843388   0.246026695555557   1.0
O306   O   0.008771809890099   0.560774818678233   0.213279980000003   1.0
O307   O   0.409813969790299   0.219792159418581   0.182788848888890   1.0
O308   O   0.896942794709048   0.865333519027878   0.130808853333335   1.0
O309   O   0.834501548723480   0.150687257156690   0.155515546666663   1.0
O310   O   0.635734463966450   0.213618800854064   0.177660031111110   1.0
O311   O   0.802513817783904   0.712335277629798   0.327935537777776   1.0
O312   O   0.001372351058521   0.565384805640626   0.151628875555552   1.0
O313   O   0.655695699991455   0.722548154443622   0.281064437777779   1.0
O314   O   0.381741792042057   0.575061286903157   0.653773328888889   1.0
O315   O   0.505745454489663   0.751155460740520   0.155593364444442   1.0
O316   O   0.300713491019273   0.746203121802253   0.175975546666663   1.0
O317   O   0.291947466582393   0.786837603784932   0.238420020000000   1.0
O318   O   0.309231995547691   0.553026700361748   0.306408862222220   1.0
O319   O   0.235699172701764   0.528915328364121   0.369040002222221   1.0
O320   O   0.140159085100571   0.630233392600019   0.428382195555557   1.0
O321   O   0.060545199536563   0.573863134864396   0.483326637777779   1.0
O322   O   0.184668958084380   0.597415369243926   0.544093322222224   1.0
O323   O   0.360342055812381   0.477383368314619   0.573928917777778   1.0
O324   O   0.455474276951996   0.282541081923306   0.240553368888890   1.0
O325   O   0.628302697693712   0.715861382025018   0.202771079999998   1.0
O326   O   0.642502621173904   0.246938815681482   0.300844404444447   1.0
O327   O   0.091358411552356   0.539071070442155   0.774375577777775   1.0
O328   O   0.803224989028216   0.311639082829451   0.433533308888890   1.0
O329   O   0.380734939388468   0.556552690647244   0.736733331111111   1.0
O330   O   0.310342482929059   0.090973630328214   0.365246666666664   1.0
O331   O   0.479231577380887   0.922639544916748   0.394322204444442   1.0
O332   O   0.564463185974454   0.893073716988845   0.472593351111108   1.0
O333   O   0.436727482674428   0.016722471073329   0.543297746666667   1.0
O334   O   0.389820721989565   0.065995035884939   0.603520033333332   1.0
O335   O   0.541353352876712   0.884458376226704   0.625944433333331   1.0
O336   O   0.685390193939661   0.679688441672617   0.594279988888886   1.0
O337   O   0.754535885228563   0.385023008227712   0.565086704444447   1.0
O338   O   0.743828090083888   0.181017677249905   0.618095568888890   1.0
O339   O   0.737515345535115   0.235687563256008   0.355208928888892   1.0
O340   O   0.773674380260694   0.360934378296882   0.693682184444441   1.0
O341   O   0.640920555426845   0.903800019067731   0.740693326666666   1.0
O342   O   0.484425579889205   0.104484289402556   0.752353328888887   1.0
O343   O   0.268262108743841   0.066440018141165   0.699317762222222   1.0
O344   O   0.106461257292935   0.877417932148191   0.674904462222223   1.0
O345   O   0.022987907068263   0.551349298918453   0.630131106666667   1.0
O346   O   0.039073520716542   0.222941496346976   0.582513342222221   1.0
O347   O   0.051930987310207   0.074461942725939   0.520442199999998   1.0
O348   O   0.223289199727901   0.104404412599969   0.470246633333332   1.0
O349   O   0.395294575820358   0.319124611862925   0.448324415555554   1.0
O350   O   0.601509280909795   0.356130370581006   0.458064440000001   1.0
O351   O   0.699206647351510   0.595783668742683   0.729497782222225   1.0
O352   O   0.273672250670522   0.468562687114975   0.790351191111114   1.0


# Number_of_total_atoms: 352
# Number_of_atom_type: 3
# Name_of_each_atom: C H O
# Number_of_each_atom: 100 202 50
# Created_by: Lihua Chen (lihua.chen@mse.gatech.edu)
# Tool: VASP
# K-points: 1 1 1
# Pseudopotential: PBE-HSE06
# Material_class: MC_Pol
# Geometry_class: GC_PD
# Bandgap_(eV): 4.90
