#======================================================================

# Note: Disordered slab of polyethylene oxide
# Common_name: Disordered slab-3

#----------------------------------------------------------------------

data_1
_audit_creation_method   'vasp2cif'
_cell_length_a    12.475914
_cell_length_b    9.0315599
_cell_length_c    45.0
_cell_angle_alpha    90.0
_cell_angle_beta    90.0
_cell_angle_gamma    90.0

_symmetry_space_group_name_H-M    'P 1'
loop_
_atom_site_label
_atom_site_type_symbol
_atom_site_fract_x
_atom_site_fract_y
_atom_site_fract_z
_atom_site_occupancy
C1   C   0.228428746783600   0.133496418486914   0.344295586666668   1.0
C2   C   0.578543375659692   0.783384163792128   0.228228928888889   1.0
C3   C   0.694182149700616   0.854302045873602   0.329853311111108   1.0
C4   C   0.647123393123742   0.936856976390089   0.303502231111111   1.0
C5   C   0.971797160512651   0.696001717267023   0.339024437777781   1.0
C6   C   0.862033659417662   0.752879887338175   0.348422242222220   1.0
C7   C   0.061763603051446   0.425195696260623   0.281608922222219   1.0
C8   C   0.074460195862201   0.541233281307250   0.306775580000000   1.0
C9   C   0.982818453221142   0.040633135810793   0.276764424444444   1.0
C10   C   0.995618998335516   0.202720263196170   0.269153340000003   1.0
C11   C   0.883571127534225   0.746502251510286   0.227628920000001   1.0
C12   C   0.927824494461888   0.816135903610629   0.255899980000002   1.0
C13   C   0.920714538429813   0.786373514502188   0.158148871111109   1.0
C14   C   0.922317667467091   0.648191504548400   0.178800031111109   1.0
C15   C   0.002417073410413   0.126709074918495   0.167064413333335   1.0
C16   C   0.026607974373661   0.999780790912986   0.145342255555555   1.0
C17   C   0.718364794755722   0.173865878916445   0.186466642222221   1.0
C18   C   0.838211813579349   0.191969152527015   0.192517768888891   1.0
C19   C   0.565654460266401   0.110698573786792   0.135744475555555   1.0
C20   C   0.675642401831240   0.194128225845020   0.134657795555555   1.0
C21   C   0.288520424235052   0.231652153466868   0.154195573333332   1.0
C22   C   0.380890490267888   0.137260928757172   0.142233362222221   1.0
C23   C   0.617690767987021   0.908368055002327   0.249831135555553   1.0
C24   C   0.611879706769379   0.670302779035993   0.180982208888892   1.0
C25   C   0.251000311480183   0.679426485340592   0.176131102222222   1.0
C26   C   0.333527186865830   0.685804121168481   0.151415593333333   1.0
C27   C   0.108205018085251   0.275155203255643   0.773420037777775   1.0
C28   C   0.996237253639293   0.251914489323156   0.760777791111110   1.0
C29   C   0.322281461702929   0.549515305766839   0.747639975555558   1.0
C30   C   0.269219313310430   0.424343141432303   0.767057800000003   1.0
C31   C   0.434834457820081   0.476969687152270   0.672826639999997   1.0
C32   C   0.394789335675128   0.572135960699327   0.698722246666669   1.0
C33   C   0.408792149416868   0.481930048429398   0.605764431111112   1.0
C34   C   0.397017452989815   0.359891373803542   0.627762179999998   1.0
C35   C   0.310234328322558   0.596007805916230   0.547195520000002   1.0
C36   C   0.419693282592362   0.514582204121794   0.553780026666665   1.0
C37   C   0.386413211889725   0.327028888996239   0.229539997777778   1.0
C38   C   0.098698788722011   0.369435660831968   0.514775593333333   1.0
C39   C   0.043872993994668   0.588810865330139   0.447453308888889   1.0
C40   C   0.026110800379037   0.468100776256826   0.470564439999997   1.0
C41   C   0.271655960437044   0.686335469025678   0.396433342222224   1.0
C42   C   0.167711768452392   0.698957917557522   0.414379968888888   1.0
C43   C   0.423708892190184   0.596882549602533   0.345902253333335   1.0
C44   C   0.366101858348813   0.496434796385508   0.367308893333330   1.0
C45   C   0.346079453577509   0.817110320001312   0.288942208888891   1.0
C46   C   0.428758598368020   0.697108757480535   0.299451108888888   1.0
C47   C   0.193954358774839   0.794478459916988   0.218415577777776   1.0
C48   C   0.233302025005940   0.865850394238102   0.247893355555554   1.0
C49   C   0.203877343175016   0.367531283272562   0.531593324444444   1.0
C50   C   0.317897093551622   0.238782771069260   0.206317817777780   1.0
C51   C   0.497098288750628   0.614465348339216   0.176495533333331   1.0
C52   C   0.455329886050834   0.280458849639032   0.278344473333334   1.0
C53   C   0.762578100490273   0.884961345381768   0.733768886666667   1.0
C54   C   0.783410177402637   0.444538955003772   0.689800008888888   1.0
C55   C   0.726340058131214   0.484044876898842   0.719662222222219   1.0
C56   C   0.748142019895297   0.177032629767531   0.639706675555558   1.0
C57   C   0.841273745554837   0.255911528638592   0.658317735555556   1.0
C58   C   0.694871341690877   0.286116764834830   0.572386677777779   1.0
C59   C   0.713667631886530   0.132798864568237   0.586180031111112   1.0
C60   C   0.803536847079904   0.619381365117228   0.564117771111114   1.0
C61   C   0.778127774846794   0.483280900345910   0.542993333333335   1.0
C62   C   0.686623641362068   0.702943862443959   0.635606639999999   1.0
C63   C   0.804691111208363   0.723959080424194   0.735128868888886   1.0
C64   C   0.782784884538316   0.670269628616424   0.615973324444447   1.0
C65   C   0.537712747939750   0.869980367400323   0.639477793333334   1.0
C66   C   0.397210080159255   0.025619107060343   0.546120028888886   1.0
C67   C   0.359256700551157   0.996115853696544   0.578157806666667   1.0
C68   C   0.532807359845542   0.788122990802506   0.489535522222219   1.0
C69   C   0.469180726959166   0.928154171905561   0.502135553333332   1.0
C70   C   0.534025523099949   0.968457320423681   0.425866700000000   1.0
C71   C   0.551122378689051   0.803269964472030   0.433831108888889   1.0
C72   C   0.420759176441905   0.102870380121161   0.357073295555558   1.0
C73   C   0.490469612086137   0.122003298677122   0.383422257777781   1.0
C74   C   0.572804164889241   0.331579531460562   0.274908871111109   1.0
C75   C   0.428782756918650   0.884761977828440   0.623860000000001   1.0
C76   C   0.502332374205210   0.073894256074190   0.725024415555552   1.0
C77   C   0.117246487912631   0.126465462516613   0.357826657777778   1.0
C78   C   0.463633846786699   0.369502083466223   0.471206664444445   1.0
C79   C   0.789461870288619   0.297067243057313   0.327824486666664   1.0
C80   C   0.725995466143800   0.385335516625425   0.305122206666667   1.0
C81   C   0.777638856760312   0.284832324480291   0.407886675555552   1.0
C82   C   0.830765216881105   0.327848171609865   0.378946686666666   1.0
C83   C   0.743260790351712   0.230212800780961   0.474693297777776   1.0
C84   C   0.818926605297214   0.153005772568704   0.452653333333331   1.0
C85   C   0.617578551759813   0.045759592426556   0.733328924444443   1.0
C86   C   0.572716107212663   0.339330097340110   0.482879977777778   1.0
C87   C   0.237245784156578   0.129344267538990   0.452193366666670   1.0
C88   C   0.151504394788226   0.875992662131381   0.511875575555557   1.0
C89   C   0.305016442081922   0.273926201829212   0.453688897777781   1.0
C90   C   0.982601972087977   0.056632564658074   0.571920013333333   1.0
C91   C   0.030832113783404   0.921798702791087   0.554924435555556   1.0
C92   C   0.090819526328893   0.413359402067414   0.601668886666666   1.0
C93   C   0.024651997440827   0.266873079145498   0.599844444444443   1.0
C94   C   0.080607897746006   0.727458033024838   0.654346635555555   1.0
C95   C   0.124043649226820   0.630442710123639   0.628122202222222   1.0
C96   C   0.199877636219682   0.072809172200699   0.683337742222221   1.0
C97   C   0.111194787011193   0.963651971128485   0.675264486666670   1.0
C98   C   0.376433967082491   0.907249809636980   0.744571093333334   1.0
C99   C   0.275944311575088   0.952391468942146   0.725886706666664   1.0
C100   C   0.170300684983879   0.931785947630154   0.480635579999998   1.0
H101   H   0.117839670905070   0.500055389102826   0.324944475555554   1.0
H102   H   0.012220202864498   0.473747707746476   0.262495593333334   1.0
H103   H   0.136138787106098   0.397592491193023   0.274395582222219   1.0
H104   H   0.915544664703525   0.228252984293441   0.261619993333333   1.0
H105   H   0.490461660764893   0.780914966859712   0.229691144444445   1.0
H106   H   0.912146084046427   0.052059722263479   0.290304480000003   1.0
H107   H   0.053948560402070   0.213847931186287   0.252580006666669   1.0
H108   H   0.991362749053899   0.743734213621281   0.265146639999997   1.0
H109   H   0.839157547895887   0.644969414419762   0.235706668888888   1.0
H110   H   0.040698845791980   0.989523426623123   0.292215560000002   1.0
H111   H   0.121959553424304   0.631926296585817   0.297595553333330   1.0
H112   H   0.691440971779706   0.946102322811370   0.244717746666666   1.0
H113   H   0.012260256042161   0.639754368456330   0.357275559999998   1.0
H114   H   0.023345463907496   0.787392286464268   0.333000013333333   1.0
H115   H   0.864173703024882   0.834338750275023   0.365199957777776   1.0
H116   H   0.572379458531053   0.994410744039911   0.305851153333336   1.0
H117   H   0.654265146425345   0.752691713864401   0.334497748888886   1.0
H118   H   0.682487559628896   0.930335522659824   0.348648920000002   1.0
H119   H   0.704906854920608   0.025619107060343   0.301780022222225   1.0
H120   H   0.603551587482890   0.684486530394381   0.237908851111108   1.0
H121   H   0.562993388700818   0.000157337161660   0.254393344444445   1.0
H122   H   0.826108411776481   0.824163331962176   0.216384464444445   1.0
H123   H   0.820048767569254   0.653871586457619   0.356533304444447   1.0
H124   H   0.862330246906161   0.816014042048259   0.270748902222223   1.0
H125   H   0.856991896545615   0.303300950259988   0.199677786666669   1.0
H126   H   0.908194686176898   0.739438255843268   0.136284468888889   1.0
H127   H   0.351530020165256   0.129654291502845   0.204866706666664   1.0
H128   H   0.338705316500260   0.423911366628928   0.236164433333336   1.0
H129   H   0.460676179717176   0.365792890328947   0.221082222222222   1.0
H130   H   0.237742645548856   0.215984926369146   0.213246664444448   1.0
H131   H   0.386493326260506   0.035816692086598   0.154386648888888   1.0
H132   H   0.217014841557898   0.172227169749490   0.156082237777781   1.0
H133   H   0.271511634337976   0.304109160589192   0.136428917777778   1.0
H134   H   0.366558979165774   0.103645440030796   0.119311099999997   1.0
H135   H   0.732656244664717   0.110997492249375   0.127711148888892   1.0
H136   H   0.566335708950866   0.011849713801929   0.149231126666663   1.0
H137   H   0.547355352080821   0.057551542120649   0.114722188888891   1.0
H138   H   0.661831910672035   0.282108542512127   0.118108877777779   1.0
H139   H   0.669694965835767   0.220513402120048   0.204848904444447   1.0
H140   H   0.701844922945128   0.060518925418407   0.182013364444444   1.0
H141   H   0.861175982777695   0.111130326445604   0.210388862222224   1.0
H142   H   0.987234923228868   0.005821895728111   0.124215528888889   1.0
H143   H   0.041628677466036   0.233036166875223   0.161193339999997   1.0
H144   H   0.022904550319922   0.102626878442116   0.190562184444445   1.0
H145   H   0.111146782512286   0.012343460181228   0.139464484444446   1.0
H146   H   0.842708397957857   0.600414652622746   0.180466631111109   1.0
H147   H   0.849825992708830   0.847813753635187   0.164253320000000   1.0
H148   H   0.981519871009048   0.564141793490180   0.171259986666669   1.0
H149   H   0.507077541573310   0.506909144233212   0.163673315555556   1.0
H150   H   0.053868446031288   0.272852112734149   0.722051071111110   1.0
H151   H   0.656677939588235   0.586242095343906   0.191324446666670   1.0
H152   H   0.034863626023714   0.373654223341859   0.531577808888891   1.0
H153   H   0.087044251827962   0.267626071992282   0.501006657777779   1.0
H154   H   0.266197442528060   0.351199652675724   0.515662215555558   1.0
H155   H   0.455626473539333   0.485561835226271   0.532671102222224   1.0
H156   H   0.311244258336501   0.655466061848294   0.525526682222221   1.0
H157   H   0.305809906993588   0.668143816440832   0.566526624444442   1.0
H158   H   0.482662512742550   0.591058539068094   0.559831153333334   1.0
H159   H   0.340067805853742   0.285230937791823   0.617913311111110   1.0
H160   H   0.480554579007197   0.545983291324902   0.613333300000001   1.0
H161   H   0.336789392745089   0.549415610917890   0.607148913333333   1.0
H162   H   0.207035588735224   0.280403421783205   0.549344466666668   1.0
H163   H   0.470358837035910   0.292593984788830   0.631179979999999   1.0
H164   H   0.473525033917355   0.381415883650398   0.682262251111112   1.0
H165   H   0.495142616404699   0.539483816079212   0.661897786666664   1.0
H166   H   0.334384863505790   0.648579034503221   0.690640004444447   1.0
H167   H   0.319668394636260   0.324061494626193   0.771742248888891   1.0
H168   H   0.396127979080333   0.572025304288800   0.757297771111112   1.0
H169   H   0.273916476179622   0.643220159565125   0.744486660000000   1.0
H170   H   0.258037799875822   0.465620595618262   0.790155537777778   1.0
H171   H   0.145220318126590   0.167111796490438   0.775028822222225   1.0
H172   H   0.087797655546517   0.315292267507410   0.794600084444447   1.0
H173   H   0.405818587720304   0.372192703942538   0.282708911111108   1.0
H174   H   0.468338960977128   0.632158814558714   0.705906677777776   1.0
H175   H   0.655732205271697   0.688849021529492   0.160528904444448   1.0
H176   H   0.041316187335049   0.358463015896071   0.462417773333335   1.0
H177   H   0.020628436521768   0.700153657841540   0.455006664444447   1.0
H178   H   0.456275612351931   0.573508990401535   0.196595595555557   1.0
H179   H   0.169635338941902   0.702002806846245   0.167904408888887   1.0
H180   H   0.305649373665126   0.764782593093358   0.136360000000003   1.0
H181   H   0.339426618362388   0.585788153827117   0.139393362222222   1.0
H182   H   0.256330405932580   0.563388911366239   0.185944451111112   1.0
H183   H   0.273122714696491   0.974093057833784   0.242691124444441   1.0
H184   H   0.129958975350426   0.866448474753511   0.208568913333330   1.0
H185   H   0.163535633541557   0.684375652538165   0.221400031111109   1.0
H186   H   0.164818008524264   0.880045118230349   0.262306637777776   1.0
H187   H   0.456628468262927   0.636831329657682   0.280882264444443   1.0
H188   H   0.986346371095536   0.569600451855500   0.429484473333332   1.0
H189   H   0.392488758739439   0.913804635232502   0.283615537777777   1.0
H190   H   0.495334947002682   0.757342062249954   0.310084448888887   1.0
H191   H   0.350520074120418   0.388424650762708   0.357299973333333   1.0
H192   H   0.505747162091694   0.554763601800396   0.343671077777778   1.0
H193   H   0.426907190928056   0.715522165777806   0.352835591111109   1.0
H194   H   0.420430783668436   0.479184188326094   0.387597742222219   1.0
H195   H   0.153540494107283   0.814574811157485   0.423177762222224   1.0
H196   H   0.337751334291021   0.682127989872491   0.410675557777779   1.0
H197   H   0.272713902965343   0.781025623270239   0.380724420000000   1.0
H198   H   0.107539672043266   0.688284301807045   0.397820026666665   1.0
H199   H   0.943782972534116   0.462033164392786   0.476268853333330   1.0
H200   H   0.277323008157957   0.848323134080083   0.303306664444442   1.0
H201   H   0.620904969367373   0.252822383429027   0.264671071111110   1.0
H202   H   0.213103192279142   0.855796837487617   0.467633311111108   1.0
H203   H   0.439819952269630   0.203960359051600   0.296731144444443   1.0
H204   H   0.523124702526808   0.812426610822790   0.659200033333335   1.0
H205   H   0.822557569729959   0.768259378980588   0.609706624444442   1.0
H206   H   0.705323617973001   0.758017427310648   0.656386651111113   1.0
H207   H   0.649015158328282   0.599484580731179   0.640768857777779   1.0
H208   H   0.836440215923261   0.590228150953195   0.627468873333335   1.0
H209   H   0.699817095565102   0.491153327787814   0.530053373333331   1.0
H210   H   0.788066974491812   0.730680112081195   0.556108855555557   1.0
H211   H   0.887498679455469   0.615849472470423   0.570337762222223   1.0
H212   H   0.837554418858609   0.479095598978425   0.524948884444441   1.0
H213   H   0.637168306867139   0.084722972384867   0.591262224444442   1.0
H214   H   0.677990983265836   0.353480476833241   0.591524422222221   1.0
H215   H   0.624632239369397   0.282230393002209   0.557586668888888   1.0
H216   H   0.739958218692436   0.053377324109867   0.573095533333330   1.0
H217   H   0.912033867819225   0.188857840604037   0.663666706666667   1.0
H218   H   0.679986708789436   0.248969173088248   0.636435531111111   1.0
H219   H   0.723174173852115   0.074890739527731   0.649593353333330   1.0
H220   H   0.873656086439837   0.347147185504468   0.646097820000001   1.0
H221   H   0.649536186286632   0.430255752386692   0.721135542222221   1.0
H222   H   0.850643608155686   0.520007712067546   0.686777751111109   1.0
H223   H   0.724296328108707   0.478110198881588   0.673117744444447   1.0
H224   H   0.775795400641591   0.442025612873366   0.738513353333332   1.0
H225   H   0.563698787920465   0.435005762404344   0.261273364444442   1.0
H226   H   0.379022875598537   0.960230734892207   0.636968908888889   1.0
H227   H   0.557719250068573   0.988930007539452   0.645268926666667   1.0
H228   H   0.288199982782828   0.917546879138783   0.576088884444445   1.0
H229   H   0.063839442945820   0.167122890919430   0.341124471111108   1.0
H230   H   0.108557873996247   0.200539012092470   0.376606666666667   1.0
H231   H   0.956030700436060   0.171363631215023   0.775413346666667   1.0
H232   H   0.948816784084919   0.357145414049683   0.760246615555559   1.0
H233   H   0.099396236620422   0.012498472163152   0.365513357777779   1.0
H234   H   0.236019356978574   0.069542848295782   0.323539988888889   1.0
H235   H   0.245012822307046   0.250541459620948   0.339193302222220   1.0
H236   H   0.575040530096629   0.138589613960264   0.379119957777775   1.0
H237   H   0.446176199996252   0.010018291524588   0.343744406666666   1.0
H238   H   0.431435877162990   0.203240738070065   0.344646708888888   1.0
H239   H   0.807464399001148   0.952258634745917   0.747584448888887   1.0
H240   H   0.467930149245980   0.210493006861420   0.398631119999998   1.0
H241   H   0.608048163845950   0.029771258008267   0.426562246666670   1.0
H242   H   0.480330146552788   0.017104464977308   0.442420026666667   1.0
H243   H   0.605443048100526   0.758006443604501   0.417655522222219   1.0
H244   H   0.525352811826053   0.021072882437508   0.503093295555558   1.0
H245   H   0.483752565142723   0.697917178183140   0.486539968888891   1.0
H246   H   0.585308427102014   0.732750584979236   0.507128906666665   1.0
H247   H   0.398291876651285   0.943810526019988   0.489308928888889   1.0
H248   H   0.322802481645837   0.096880274248086   0.585522206666667   1.0
H249   H   0.450681032267454   0.124793602930097   0.544960022222220   1.0
H250   H   0.323115276363723   0.057407613495428   0.535073344444442   1.0
H251   H   0.479600596797958   0.734444522700890   0.434617784444441   1.0
H252   H   0.809155577699556   0.691727715829025   0.759028964444447   1.0
H253   H   0.393049839875459   0.780748971171633   0.624533335555554   1.0
H254   H   0.783802773888951   0.920160104346984   0.710904440000000   1.0
H255   H   0.091124073154077   0.944729392759719   0.469646708888888   1.0
H256   H   0.320021250547256   0.299425672856359   0.431051126666667   1.0
H257   H   0.288865024237900   0.040433768257465   0.443826635555553   1.0
H258   H   0.165074550850541   0.125413650857809   0.437966664444445   1.0
H259   H   0.259464492942158   0.364652478250186   0.464215595555558   1.0
H260   H   0.612031976174251   0.448657844809290   0.487048848888890   1.0
H261   H   0.473565095110466   0.419072756191319   0.448737760000000   1.0
H262   H   0.417288745337615   0.433976017808398   0.487186688888890   1.0
H263   H   0.892187586416512   0.125347128572997   0.461831071111113   1.0
H264   H   0.770240569147880   0.345442064775540   0.479228888888890   1.0
H265   H   0.730596307412824   0.166458598143166   0.495477804444441   1.0
H266   H   0.793758180763348   0.048106938868891   0.442964426666670   1.0
H267   H   0.870345579490206   0.437308753275282   0.378533342222220   1.0
H268   H   0.730900854238016   0.196896252661737   0.400302208888888   1.0
H269   H   0.721875583624573   0.367387354647342   0.416095564444447   1.0
H270   H   0.902736168267914   0.252589865456130   0.375293311111108   1.0
H271   H   0.743549434534415   0.505181845718589   0.308328924444446   1.0
H272   H   0.868550119854945   0.335631998631818   0.323631117777779   1.0
H273   H   0.772709622717819   0.180952152019721   0.328113302222221   1.0
H274   H   0.764004801572057   0.374207848635315   0.282377795555554   1.0
H275   H   0.878264887045553   0.713241131246882   0.723284404444442   1.0
H276   H   0.112733704320178   0.769455119264613   0.513024477777776   1.0
H277   H   0.227827604454468   0.861377235620175   0.522017755555552   1.0
H278   H   0.556757316538089   0.274324715490181   0.504504480000001   1.0
H279   H   0.626187059320863   0.081135541159398   0.756231180000000   1.0
H280   H   0.484329853508129   0.192190576070921   0.720324453333333   1.0
H281   H   0.966009945243293   0.851401184860656   0.547488913333332   1.0
H282   H   0.672163706803367   0.116013181731759   0.719524468888892   1.0
H283   H   0.483800882243976   0.006641200486307   0.705437808888888   1.0
H284   H   0.237101458057502   0.841768308484561   0.725620015555556   1.0
H285   H   0.418739292367675   0.811020530351570   0.739833324444447   1.0
H286   H   0.343073477422173   0.878550337688623   0.766151088888890   1.0
H287   H   0.089489146847278   0.907183287352169   0.696008895555558   1.0
H288   H   0.171166304929642   0.157312824775708   0.697475517777775   1.0
H289   H   0.222104608928852   0.129300022690430   0.662426673333336   1.0
H290   H   0.041660779322463   0.015454772104206   0.662913344444448   1.0
H291   H   0.221359148516093   0.026139471211394   0.738008880000002   1.0
H292   H   0.957160797998448   0.999698844935970   0.593064457777778   1.0
H293   H   0.086178631882198   0.664024826984758   0.674099986666668   1.0
H294   H   0.994794657930470   0.749658018655225   0.651508924444443   1.0
H295   H   0.204582742394663   0.595321346426545   0.630597771111113   1.0
H296   H   0.044009360757059   0.205665468708233   0.620766702222220   1.0
H297   H   0.083814147805121   0.488374206542105   0.582393306666667   1.0
H298   H   0.180023395480284   0.388568579387929   0.602117751111109   1.0
H299   H   0.941699189333946   0.295694313005662   0.596553293333336   1.0
H300   H   0.091011856926876   0.869814371712245   0.570791117777780   1.0
H301   H   0.118368650184671   0.693532520334614   0.607373302222221   1.0
H302   H   0.916442386505707   0.104033080708461   0.559482235555556   1.0
O303   O   0.964246595479899   0.594258440338749   0.315077802222220   1.0
O304   O   0.021125297914047   0.296270005361976   0.293339962222220   1.0
O305   O   0.964438926077882   0.957761537959797   0.250284406666665   1.0
O306   O   0.960800018339334   0.693820366512767   0.205899979999998   1.0
O307   O   0.315500507618118   0.314517096874930   0.179577806666664   1.0
O308   O   0.889959477117266   0.145365863099684   0.165068902222224   1.0
O309   O   0.682711992083306   0.260661538656237   0.162911139999999   1.0
O310   O   0.478807131886292   0.202111309697450   0.146548886666665   1.0
O311   O   0.806174064681755   0.817497849956133   0.324599966666668   1.0
O312   O   0.012965655261809   0.868485586858590   0.162126668888888   1.0
O313   O   0.642426534841455   0.845200738800393   0.278353373333331   1.0
O314   O   0.351417803938055   0.427421181140588   0.653839959999999   1.0
O315   O   0.438216831247793   0.716474194009386   0.159106700000002   1.0
O316   O   0.271808229841916   0.785144623798601   0.196782262222222   1.0
O317   O   0.303284897603497   0.756655702410832   0.262071144444441   1.0
O318   O   0.379047034149160   0.581492074253973   0.316762204444444   1.0
O319   O   0.264979271258205   0.549371366069330   0.379215580000000   1.0
O320   O   0.153404119329451   0.586463529960092   0.436844466666663   1.0
O321   O   0.104277466164000   0.489979654566646   0.493482208888892   1.0
O322   O   0.217543812822051   0.503908599443605   0.548846691111109   1.0
O323   O   0.421200090029473   0.409074416923261   0.577773368888892   1.0
O324   O   0.403574271191673   0.229360245952641   0.253206635555557   1.0
O325   O   0.618540485290296   0.800501937655312   0.199891071111111   1.0
O326   O   0.606196756405986   0.374473528100054   0.303382195555557   1.0
O327   O   0.010304279109327   0.198612467819650   0.732135520000000   1.0
O328   O   0.852879973363073   0.248138784973349   0.429115551111110   1.0
O329   O   0.345766963446529   0.482594440856225   0.720075564444443   1.0
O330   O   0.310202218450691   0.081024774026027   0.364128875555558   1.0
O331   O   0.490389505730803   0.980714416786405   0.397691093333336   1.0
O332   O   0.596329719810505   0.792873011892439   0.464502208888888   1.0
O333   O   0.434738144235361   0.892468199208864   0.531577808888891   1.0
O334   O   0.446969961479375   0.939525540875835   0.595188904444441   1.0
O335   O   0.619005252841596   0.812448788608485   0.620906662222225   1.0
O336   O   0.740519604415354   0.606781205093931   0.590311093333334   1.0
O337   O   0.788820378210367   0.340869233453240   0.558326635555552   1.0
O338   O   0.789830324255199   0.153581464925011   0.609706624444442   1.0
O339   O   0.751532649231152   0.340492687204566   0.355982208888889   1.0
O340   O   0.807929463123905   0.293867330714377   0.687708875555558   1.0
O341   O   0.650425964783018   0.893143575341838   0.736720022222222   1.0
O342   O   0.434441548731421   0.032738541655469   0.749391091111114   1.0
O343   O   0.289378092859572   0.002821251287941   0.695551131111110   1.0
O344   O   0.146446737289146   0.856726898306903   0.655275557777777   1.0
O345   O   0.058236911540106   0.500354329709978   0.625580004444444   1.0
O346   O   0.055992595011475   0.172725466837683   0.576926675555555   1.0
O347   O   0.084399074889426   0.983681789011882   0.528824446666668   1.0
O348   O   0.211492119936061   0.077703110843565   0.481697762222225   1.0
O349   O   0.403477957606952   0.245226829531411   0.466893344444443   1.0
O350   O   0.639436773930953   0.246057217646310   0.463486653333334   1.0
O351   O   0.717419068454625   0.643264293690841   0.721515571111112   1.0
O352   O   0.162710066773464   0.374318516118130   0.754857804444441   1.0


# Number_of_total_atoms: 352
# Number_of_atom_type: 3
# Name_of_each_atom: C H O
# Number_of_each_atom: 100 202 50
# Created_by: Lihua Chen (lihua.chen@mse.gatech.edu)
# Tool: VASP
# K-points: 1 1 1
# Pseudopotential: PBE-HSE06
# Material_class: MC_Pol
# Geometry_class: GC_PD
# Bandgap_(eV): 4.87
