#======================================================================

# Note: Disordered slab of polyethylene oxide
# Common_name: Disordered slab-4

#----------------------------------------------------------------------

data_1
_audit_creation_method   'vasp2cif'
_cell_length_a    12.8501358
_cell_length_b    8.7472725
_cell_length_c    45.0
_cell_angle_alpha    90.0
_cell_angle_beta    90.0
_cell_angle_gamma    90.0

_symmetry_space_group_name_H-M    'P 1'
loop_
_atom_site_label
_atom_site_type_symbol
_atom_site_fract_x
_atom_site_fract_y
_atom_site_fract_z
_atom_site_occupancy
C1   C   0.323674976259781   0.223399465376204   0.340553368888891   1.0
C2   C   0.690597184194736   0.732072414572656   0.198871106666665   1.0
C3   C   0.709048249902544   0.828582521008691   0.303571151111114   1.0
C4   C   0.670682896596311   0.906378211036639   0.274562242222224   1.0
C5   C   0.969076638085021   0.687898622113352   0.324775526666670   1.0
C6   C   0.854081806668532   0.746339696173862   0.328186628888886   1.0
C7   C   0.097078125820275   0.421575571128031   0.271888902222223   1.0
C8   C   0.082284671263942   0.539120794510517   0.296839988888891   1.0
C9   C   0.084074442232740   0.010064451519028   0.283077748888886   1.0
C10   C   0.104214353905895   0.154120727346722   0.265891097777775   1.0
C11   C   0.039250005435740   0.827233437622986   0.214746686666665   1.0
C12   C   0.995714527779541   0.863507693398141   0.244786664444447   1.0
C13   C   0.055576735617066   0.110541451635349   0.165073311111108   1.0
C14   C   0.115288135709818   0.959434726653363   0.172860040000003   1.0
C15   C   0.933263989319087   0.393966976563263   0.189777797777779   1.0
C16   C   0.047070794380239   0.375766937636847   0.180448913333336   1.0
C17   C   0.700106811322570   0.195562239543811   0.161064402222223   1.0
C18   C   0.761475882612849   0.300783564248171   0.181999968888889   1.0
C19   C   0.502536969298021   0.112290545424301   0.136475542222222   1.0
C20   C   0.605959891879117   0.168045113491090   0.118851131111114   1.0
C21   C   0.393503086558823   0.137372683885175   0.196506671111109   1.0
C22   C   0.362740633449178   0.217500529450753   0.166362253333332   1.0
C23   C   0.671616816687646   0.859129025647711   0.222191111111108   1.0
C24   C   0.656815354433839   0.706887352600482   0.147173308888888   1.0
C25   C   0.356359611390253   0.593560632757239   0.193586646666667   1.0
C26   C   0.369394461963587   0.683234299605964   0.164146677777779   1.0
C27   C   0.134797509299474   0.427485939188472   0.789166600000001   1.0
C28   C   0.020907880210885   0.455083090186115   0.791086664444443   1.0
C29   C   0.212765533575137   0.393280991303293   0.713817766666665   1.0
C30   C   0.235987148089130   0.381494471562419   0.747408888888891   1.0
C31   C   0.135965061163013   0.244640429345260   0.656275515555556   1.0
C32   C   0.071560893543243   0.307620003835481   0.682724424444444   1.0
C33   C   0.367277550483166   0.364083352839415   0.614555528888886   1.0
C34   C   0.298912669856769   0.251293909044222   0.631335533333335   1.0
C35   C   0.310040770152796   0.583923342962052   0.544802264444442   1.0
C36   C   0.374530446596523   0.473934772239005   0.564297740000001   1.0
C37   C   0.522723479700502   0.317497368465425   0.256633335555556   1.0
C38   C   0.096300048439957   0.403432772901496   0.505631086666668   1.0
C39   C   0.950485457126454   0.698907779539276   0.464768897777780   1.0
C40   C   0.969068926104271   0.549626915132691   0.478502231111108   1.0
C41   C   0.121653718243195   0.795109126873548   0.399297755555558   1.0
C42   C   0.027179954004843   0.801225227635243   0.418855542222225   1.0
C43   C   0.302500227273860   0.572102492519811   0.389608848888891   1.0
C44   C   0.191520715290807   0.550095621235073   0.400315517777777   1.0
C45   C   0.385985695186193   0.774668400921541   0.321140035555558   1.0
C46   C   0.400530374161491   0.675426128544643   0.349177806666667   1.0
C47   C   0.312157681633217   0.663479570346070   0.244757757777776   1.0
C48   C   0.357752483829785   0.765591388630000   0.270319960000002   1.0
C49   C   0.207419379957059   0.412018306277758   0.518284437777780   1.0
C50   C   0.454459524077556   0.199106212822343   0.242637804444442   1.0
C51   C   0.547711410178252   0.632852823551573   0.150142246666668   1.0
C52   C   0.705600807736211   0.387942229992262   0.260928853333333   1.0
C53   C   0.559283334577678   0.719679945948869   0.730928888888890   1.0
C54   C   0.753351408161770   0.339812895962716   0.711113315555558   1.0
C55   C   0.694519306169511   0.338052347174504   0.738784451111108   1.0
C56   C   0.676620693767298   0.256529861165298   0.634797753333331   1.0
C57   C   0.743421427499619   0.255752395961139   0.662866635555552   1.0
C58   C   0.635259130880158   0.342042253742527   0.568351153333332   1.0
C59   C   0.669982600495160   0.189983403398031   0.584180026666665   1.0
C60   C   0.754098606490992   0.679221528767968   0.567988926666665   1.0
C61   C   0.701359856446032   0.565894797492589   0.546440040000000   1.0
C62   C   0.689974669372752   0.806266993511407   0.644688924444445   1.0
C63   C   0.647780407114453   0.603140693284679   0.734275564444445   1.0
C64   C   0.762401795006710   0.721303331981481   0.620699991111110   1.0
C65   C   0.516147728181984   0.801636910248305   0.621428848888890   1.0
C66   C   0.519237150785600   0.955227655249111   0.521548886666665   1.0
C67   C   0.458397381294603   0.975165344397354   0.549488915555557   1.0
C68   C   0.639842950142210   0.802700121666497   0.468655564444447   1.0
C69   C   0.531758434801908   0.770267051815296   0.483366648888890   1.0
C70   C   0.628302200510596   0.866880070330495   0.387002224444444   1.0
C71   C   0.588886259085292   0.877900568434335   0.419973333333331   1.0
C72   C   0.510739225028267   0.195825201512811   0.345637766666670   1.0
C73   C   0.590201350245650   0.112462027449126   0.367186653333334   1.0
C74   C   0.712129960525395   0.411503814474742   0.294986639999998   1.0
C75   C   0.453090114425095   0.882713600153650   0.598395537777776   1.0
C76   C   0.454490698845376   0.051654570038835   0.735186682222221   1.0
C77   C   0.220781067543271   0.181603614155158   0.357453324444442   1.0
C78   C   0.498062394017659   0.304601965927091   0.463686626666664   1.0
C79   C   0.891653355134196   0.290060267357625   0.339577737777780   1.0
C80   C   0.839366133391366   0.220267060389396   0.311726633333336   1.0
C81   C   0.853124727288872   0.189320316704439   0.418562233333333   1.0
C82   C   0.909575414759431   0.261354222130386   0.391053348888889   1.0
C83   C   0.780526311636336   0.230784613146554   0.481488884444445   1.0
C84   C   0.872797671134336   0.137647100853435   0.467842186666665   1.0
C85   C   0.526583259921658   0.974170588603478   0.712482197777781   1.0
C86   C   0.600263438461091   0.300783564248171   0.483211093333331   1.0
C87   C   0.283084058924885   0.015323187885137   0.450606706666669   1.0
C88   C   0.142960878281144   0.889721533197921   0.519315593333332   1.0
C89   C   0.352966495498045   0.163026349070527   0.445724402222225   1.0
C90   C   0.955792731777976   0.110472881689695   0.562324439999998   1.0
C91   C   0.032822081148744   0.984311040955909   0.554453364444441   1.0
C92   C   0.029405813750230   0.463874459152841   0.591522217777779   1.0
C93   C   0.948967908961706   0.337446512612935   0.587515597777781   1.0
C94   C   0.034783142136135   0.769603953689561   0.647113291111111   1.0
C95   C   0.075965703023933   0.668521119011672   0.622411091111111   1.0
C96   C   0.026331822890150   0.795074899061390   0.718046655555554   1.0
C97   C   0.946073215817691   0.778738321002344   0.692344411111108   1.0
C98   C   0.284834943145114   0.970901135182423   0.720108879999998   1.0
C99   C   0.190509013920305   0.884085353463036   0.730106693333333   1.0
C100   C   0.173808832432726   0.893128355152989   0.486222248888886   1.0
H101   H   0.104836868727880   0.500560168898360   0.318282233333335   1.0
H102   H   0.044199260524543   0.455700494068296   0.254984453333336   1.0
H103   H   0.177489906371264   0.423610525452361   0.262831115555556   1.0
H104   H   0.056308198704016   0.172652195298589   0.246904415555555   1.0
H105   H   0.631796249188277   0.640832385180637   0.201079982222225   1.0
H106   H   0.006674614286958   0.002896480017057   0.293055555555554   1.0
H107   H   0.182657057989999   0.179888748178364   0.259377797777781   1.0
H108   H   0.949909548815818   0.768701009371782   0.253315566666664   1.0
H109   H   0.070658132655687   0.718285294073098   0.215146637777778   1.0
H110   H   0.139544603100617   0.998895244203261   0.300897811111113   1.0
H111   H   0.138789692790638   0.631286563897490   0.293768904444441   1.0
H112   H   0.723211757808819   0.951294897923894   0.219128928888885   1.0
H113   H   0.993660253769455   0.627822615563879   0.344140031111110   1.0
H114   H   0.024658712167074   0.769318310364746   0.321451144444445   1.0
H115   H   0.852603145252367   0.839054185176010   0.342855582222221   1.0
H116   H   0.586637247833600   0.938319573329856   0.276662191111115   1.0
H117   H   0.666877738366004   0.729488740633151   0.310273320000000   1.0
H118   H   0.692036966644352   0.915455211896052   0.319082217777776   1.0
H119   H   0.710028776505226   0.010807460268332   0.268511115555555   1.0
H120   H   0.764098352952814   0.676135012370999   0.202462259999997   1.0
H121   H   0.589757837423008   0.902011089742544   0.221566688888892   1.0
H122   H   0.973224672069222   0.832709350257467   0.200235577777775   1.0
H123   H   0.808557065988360   0.660438633871301   0.336624484444442   1.0
H124   H   0.943652914547407   0.959331803142064   0.245513322222223   1.0
H125   H   0.719577593880366   0.400494645616675   0.185155571111110   1.0
H126   H   0.066689411951586   0.131805199849438   0.140593295555554   1.0
H127   H   0.478327108418576   0.091838478794386   0.248815579999999   1.0
H128   H   0.496692680866453   0.341150524349160   0.278231133333335   1.0
H129   H   0.509665181904147   0.430606900608161   0.247113291111113   1.0
H130   H   0.373588798960398   0.220850122138074   0.249653371111108   1.0
H131   H   0.305161568798361   0.158887961933274   0.152171071111113   1.0
H132   H   0.422957880336177   0.023359990214090   0.191691082222221   1.0
H133   H   0.316103258613033   0.129736006280815   0.208484480000003   1.0
H134   H   0.327565931248756   0.320035371025654   0.172471111111108   1.0
H135   H   0.656652079894748   0.071729410510535   0.113831075555552   1.0
H136   H   0.512334554472176   0.031671209511309   0.151899973333336   1.0
H137   H   0.444350837132788   0.065075805058093   0.120348866666667   1.0
H138   H   0.579571073482349   0.210709772674853   0.097286648888890   1.0
H139   H   0.634325498723520   0.140527987438368   0.173411137777777   1.0
H140   H   0.741522708265855   0.089197667044211   0.155488924444441   1.0
H141   H   0.770145106170787   0.248092934111746   0.204533302222224   1.0
H142   H   0.046635001320375   0.391840542294759   0.157262251111113   1.0
H143   H   0.924221330018938   0.510426089961186   0.197504426666669   1.0
H144   H   0.923084937359185   0.338749798865876   0.211068895555556   1.0
H145   H   0.094307820466767   0.466526714470142   0.188911099999999   1.0
H146   H   0.077973370522670   0.855813775093893   0.163806662222221   1.0
H147   H   0.970594194031783   0.093724826796013   0.166639964444443   1.0
H148   H   0.192431188159119   0.969563621117324   0.163855573333336   1.0
H149   H   0.526560108415353   0.586484129767307   0.129631128888889   1.0
H150   H   0.031740318261853   0.374372285761076   0.752580008888891   1.0
H151   H   0.717764367906526   0.616230602167704   0.147642262222220   1.0
H152   H   0.046207223739998   0.378236358819279   0.523342217777781   1.0
H153   H   0.086650306061358   0.300714994302510   0.491699982222222   1.0
H154   H   0.271885593613725   0.426228450068294   0.501444415555554   1.0
H155   H   0.395347487300484   0.379470972237343   0.549699995555557   1.0
H156   H   0.347472499084404   0.606799033641629   0.523608906666666   1.0
H157   H   0.309792010135801   0.689419096066800   0.558077748888891   1.0
H158   H   0.439580288326603   0.536822878217180   0.572137791111111   1.0
H159   H   0.260889585306948   0.177396542750898   0.615104422222224   1.0
H160   H   0.429502768367634   0.288196806490255   0.605177815555557   1.0
H161   H   0.398608199922684   0.441821905056692   0.629644435555555   1.0
H162   H   0.226890162514856   0.299709012152071   0.528399997777775   1.0
H163   H   0.347005539038740   0.190200591098538   0.644815571111110   1.0
H164   H   0.087132705632577   0.231904950943282   0.637793308888888   1.0
H165   H   0.163793350728639   0.128307012271542   0.659911093333335   1.0
H166   H   0.000153181260544   0.237621041301729   0.683948855555556   1.0
H167   H   0.248671994579233   0.264738042629858   0.752448866666668   1.0
H168   H   0.277807663324459   0.338029574361606   0.702037811111111   1.0
H169   H   0.191660838323592   0.518851573447606   0.710084448888892   1.0
H170   H   0.305737484891019   0.442187687647781   0.753933293333333   1.0
H171   H   0.144252810153184   0.313839130997693   0.798053320000001   1.0
H172   H   0.179972253678443   0.500914610811542   0.803513251111113   1.0
H173   H   0.779047650220164   0.333833957956607   0.252417755555555   1.0
H174   H   0.043755747701901   0.426159868690497   0.678317768888888   1.0
H175   H   0.660449518362292   0.759577982736907   0.126879968888886   1.0
H176   H   0.961372517168265   0.456397831438316   0.463277773333331   1.0
H177   H   0.949263874705508   0.790456362254638   0.483091142222221   1.0
H178   H   0.549804874435644   0.539040780997730   0.166048855555559   1.0
H179   H   0.285029384670004   0.525493609579442   0.194391124444444   1.0
H180   H   0.313021547990175   0.769981397058338   0.166608853333336   1.0
H181   H   0.337838188449339   0.621603591290885   0.145602248888892   1.0
H182   H   0.426444217033101   0.511958007481759   0.197108884444447   1.0
H183   H   0.441370355012126   0.788021180316491   0.264913346666667   1.0
H184   H   0.228127472396054   0.645336657798190   0.242924417777779   1.0
H185   H   0.339643694660410   0.547511935863433   0.246484459999998   1.0
H186   H   0.311830836838318   0.868777759010023   0.273011102222220   1.0
H187   H   0.460117098529025   0.598407789399495   0.345304446666667   1.0
H188   H   0.873194569663617   0.693614598150454   0.452884419999997   1.0
H189   H   0.462817630300840   0.809673598255912   0.315075513333333   1.0
H190   H   0.433603892341743   0.758766404041943   0.363855573333332   1.0
H191   H   0.170532680284985   0.428492024228120   0.395393371111112   1.0
H192   H   0.354343928412028   0.470870937197851   0.391922251111112   1.0
H193   H   0.331814890236416   0.668624031090836   0.402560000000001   1.0
H194   H   0.190517029399800   0.560830361692744   0.423111131111113   1.0
H195   H   0.007398061894413   0.912151324884412   0.425955539999997   1.0
H196   H   0.195186053987072   0.825793000046588   0.410753293333336   1.0
H197   H   0.114758833910535   0.886246015543705   0.383015526666668   1.0
H198   H   0.953458219484340   0.770449988839381   0.403642188888888   1.0
H199   H   0.912236771847965   0.534559395514428   0.495613353333333   1.0
H200   H   0.336344095289640   0.878015038401969   0.324555546666666   1.0
H201   H   0.781615786503984   0.479685090409610   0.298677742222225   1.0
H202   H   0.212430976799482   0.778475347601209   0.478486633333333   1.0
H203   H   0.692815028460636   0.478667664692054   0.246093326666667   1.0
H204   H   0.533439249723727   0.684000321242991   0.614295535555556   1.0
H205   H   0.820331143893434   0.806621321103236   0.611944411111111   1.0
H206   H   0.725211705544780   0.890761846049728   0.658600024444446   1.0
H207   H   0.657313489247329   0.729534309123217   0.659768931111110   1.0
H208   H   0.798269361480209   0.626302141610431   0.634555562222225   1.0
H209   H   0.620255499556663   0.584986451491019   0.540742237777778   1.0
H210   H   0.744892369153014   0.798081596291873   0.561380004444445   1.0
H211   H   0.838190861765057   0.647051626664201   0.568344455555554   1.0
H212   H   0.733367059046955   0.577441242398699   0.523960028888887   1.0
H213   H   0.614380044139303   0.106643139332860   0.589986675555558   1.0
H214   H   0.613913076311611   0.430744166252964   0.584031084444447   1.0
H215   H   0.569158693248987   0.321247188766556   0.554684448888892   1.0
H216   H   0.721149468319240   0.126637943427511   0.569051106666670   1.0
H217   H   0.757273530136544   0.139853445745516   0.669164446666670   1.0
H218   H   0.631500579161198   0.365912471573282   0.633842215555553   1.0
H219   H   0.620310129329525   0.171383251179151   0.639591133333333   1.0
H220   H   0.825677601010256   0.298702927112423   0.661415524444443   1.0
H221   H   0.667515692713536   0.214391011598188   0.740773348888887   1.0
H222   H   0.808992851266211   0.238558556395723   0.712002224444447   1.0
H223   H   0.805848806671754   0.432836258387972   0.708397759999997   1.0
H224   H   0.740503287132576   0.365580916794350   0.759128824444446   1.0
H225   H   0.639103471575766   0.465131948273019   0.304962244444447   1.0
H226   H   0.453899351009191   0.998026424808415   0.605362193333335   1.0
H227   H   0.465159862357254   0.787803992615984   0.640675524444447   1.0
H228   H   0.375876704742687   0.958988816228143   0.546417744444447   1.0
H229   H   0.242920919170366   0.154498056394154   0.379893324444446   1.0
H230   H   0.176096738215016   0.099463712831628   0.346737755555559   1.0
H231   H   0.982321665425509   0.407925601951924   0.810262213333331   1.0
H232   H   0.005940186250797   0.577269851830955   0.791066657777776   1.0
H233   H   0.167061790895623   0.282446488319643   0.359126706666665   1.0
H234   H   0.322546614643556   0.169759968035748   0.317386626666668   1.0
H235   H   0.341114644095825   0.350844951955025   0.340966626666663   1.0
H236   H   0.674613026268560   0.132216768141156   0.363415526666664   1.0
H237   H   0.531174806728501   0.172354994085296   0.322368877777777   1.0
H238   H   0.514676786528590   0.318160466591159   0.347280035555556   1.0
H239   H   0.510046648689894   0.677621029869599   0.711662206666666   1.0
H240   H   0.573462282009501   0.161517330116332   0.389102257777779   1.0
H241   H   0.602613678214979   0.751838495942593   0.382608879999999   1.0
H242   H   0.709406261683242   0.885080097824776   0.384066688888886   1.0
H243   H   0.505097097884367   0.863473248375421   0.419491155555555   1.0
H244   H   0.475393240591281   0.842563930642378   0.471086628888891   1.0
H245   H   0.700620377879588   0.728871439640187   0.477284411111114   1.0
H246   H   0.666589780319676   0.927767667007060   0.471082222222222   1.0
H247   H   0.510318871493951   0.653636547849629   0.479842206666667   1.0
H248   H   0.463821323973867   0.096342739979804   0.556620026666664   1.0
H249   H   0.599290919555884   0.006763719776650   0.521542188888887   1.0
H250   H   0.467759173408894   0.009401364825436   0.505648888888892   1.0
H251   H   0.615072612695656   0.996714850257611   0.424939982222220   1.0
H252   H   0.692565972726918   0.635927987838492   0.752582213333334   1.0
H253   H   0.377394252907429   0.845604867117153   0.598426648888889   1.0
H254   H   0.515439416601339   0.736576698622343   0.752255591111108   1.0
H255   H   0.099148127290611   0.917901745944235   0.474315557777779   1.0
H256   H   0.377378813381881   0.185033220355258   0.423833295555553   1.0
H257   H   0.332842326849182   0.917387139819873   0.444640011111112   1.0
H258   H   0.214827823064717   0.010418790542992   0.437433371111112   1.0
H259   H   0.300095349965098   0.256689899622998   0.449955580000001   1.0
H260   H   0.623399551933140   0.415264964021645   0.488599991111109   1.0
H261   H   0.520466748686033   0.327100430448461   0.441066657777775   1.0
H262   H   0.456008254792138   0.408439979433588   0.468293337777780   1.0
H263   H   0.923084937359185   0.142780129463212   0.488177746666665   1.0
H264   H   0.812035675140493   0.341733494640756   0.484404415555552   1.0
H265   H   0.768775393019581   0.182746850518264   0.504417760000003   1.0
H266   H   0.847109148838726   0.023680089993768   0.464662257777775   1.0
H267   H   0.904602704665578   0.379813959151264   0.393168895555554   1.0
H268   H   0.845700541156930   0.065304539214935   0.412931146666665   1.0
H269   H   0.777888121618140   0.244731897857307   0.418908862222224   1.0
H270   H   0.987481097281474   0.222942202840940   0.388442231111114   1.0
H271   H   0.885552275642098   0.233494109163743   0.291157786666666   1.0
H272   H   0.878058331492497   0.416293947627672   0.340951115555555   1.0
H273   H   0.977403577322505   0.275770098622168   0.337977768888891   1.0
H274   H   0.841303739373714   0.097463089208667   0.314686668888889   1.0
H275   H   0.692776149494080   0.607542042390925   0.713477748888891   1.0
H276   H   0.114440004595124   0.774085339172871   0.519015588888891   1.0
H277   H   0.214532153037638   0.896729466242192   0.532126702222222   1.0
H278   H   0.587166246134146   0.244880492747882   0.505604468888890   1.0
H279   H   0.576154806083842   0.064001252961994   0.700813293333333   1.0
H280   H   0.495930043011683   0.062046323582578   0.756608919999998   1.0
H281   H   0.993341128737335   0.873773739185559   0.555502235555558   1.0
H282   H   0.483144263736108   0.921319908577217   0.694446648888892   1.0
H283   H   0.426771054045979   0.168593833106264   0.729811097777777   1.0
H284   H   0.216477774499474   0.763339143715939   0.729735566666669   1.0
H285   H   0.258446124748346   0.091564164715344   0.718764411111110   1.0
H286   H   0.308935863541613   0.928362069433646   0.698773364444442   1.0
H287   H   0.876727505089868   0.725464617685113   0.701471117777778   1.0
H288   H   0.055506674100677   0.686641121561038   0.725564406666663   1.0
H289   H   0.989208829995398   0.848771614237464   0.737131075555553   1.0
H290   H   0.934796977009377   0.903199894595716   0.685137771111108   1.0
H291   H   0.168804955353082   0.915878235187023   0.751784431111112   1.0
H292   H   0.901637662070463   0.065395904837764   0.577448866666664   1.0
H293   H   0.977956038410113   0.842518133509614   0.639146677777781   1.0
H294   H   0.096883676513365   0.834892899472379   0.656693353333331   1.0
H295   H   0.133404644641963   0.596270025885211   0.633080037777781   1.0
H296   H   0.922197927277935   0.295159056723108   0.607684411111109   1.0
H297   H   0.040697492084092   0.518531473667935   0.569633315555556   1.0
H298   H   0.102805746224099   0.413241567585779   0.597324457777781   1.0
H299   H   0.882213781740738   0.374326500060448   0.574197813333335   1.0
H300   H   0.092385646227953   0.970946715104624   0.571400028888888   1.0
H301   H   0.108214249377816   0.732529677107919   0.603168911111112   1.0
H302   H   0.908166814859655   0.147181478569465   0.544266680000000   1.0
O303   O   0.976570885733366   0.590531036960378   0.300688851111111   1.0
O304   O   0.076494709106498   0.276010173456925   0.284317780000002   1.0
O305   O   0.085755272718593   0.886314711242846   0.262775591111108   1.0
O306   O   0.111311391744202   0.936421656007631   0.204711151111113   1.0
O307   O   0.461447917149641   0.229046962924727   0.212437777777780   1.0
O308   O   0.859529188788805   0.334199717683425   0.168531122222220   1.0
O309   O   0.668044994512819   0.273529411596584   0.134566666666665   1.0
O310   O   0.459603531972014   0.240239068806879   0.150211079999998   1.0
O311   O   0.817218562001500   0.797109750496510   0.300580004444441   1.0
O312   O   0.091537515113266   0.223228074808460   0.184771135555557   1.0
O313   O   0.673352261382327   0.795406339518976   0.251359982222219   1.0
O314   O   0.225605942623581   0.331067312696618   0.649928877777775   1.0
O315   O   0.472934044790407   0.742601433761209   0.157502237777777   1.0
O316   O   0.358896284971557   0.700656770439011   0.216760000000001   1.0
O317   O   0.343978154690006   0.692620070999276   0.298120033333333   1.0
O318   O   0.301659815921944   0.621432200723142   0.359348891111111   1.0
O319   O   0.120766700379931   0.649555287090919   0.385013326666666   1.0
O320   O   0.037397892713322   0.705035449621583   0.444326697777775   1.0
O321   O   0.073233996484305   0.537463066344394   0.491057755555559   1.0
O322   O   0.208290958294775   0.524819182207942   0.540566677777775   1.0
O323   O   0.312032998125979   0.434619579989075   0.589766693333331   1.0
O324   O   0.629399395141022   0.273906637754799   0.253655582222223   1.0
O325   O   0.679990362436484   0.804414873321939   0.171091122222222   1.0
O326   O   0.731141495018285   0.262097230879682   0.308555519999999   1.0
O327   O   0.971816072169446   0.392606563931786   0.764891053333336   1.0
O328   O   0.913085198679376   0.217900654175345   0.443540022222223   1.0
O329   O   0.123536997951412   0.294873196187723   0.711884477777780   1.0
O330   O   0.410958186138394   0.151594282674971   0.353835551111111   1.0
O331   O   0.563104523766981   0.955227655249111   0.367062208888889   1.0
O332   O   0.647788422593948   0.771467414556938   0.438226657777776   1.0
O333   O   0.519867385370354   0.803225839826069   0.513931104444445   1.0
O334   O   0.503432002640778   0.870972877545540   0.571362219999997   1.0
O335   O   0.611205120493743   0.888704107480358   0.628708902222222   1.0
O336   O   0.703935720274643   0.656140196844220   0.596426648888887   1.0
O337   O   0.715499621412562   0.405090398178402   0.553446706666669   1.0
O338   O   0.735180285020803   0.220221377577985   0.608482191111108   1.0
O339   O   0.856369704668801   0.212276043761072   0.364633348888887   1.0
O340   O   0.685749157608122   0.314559355501956   0.686531151111112   1.0
O341   O   0.596566932779027   0.868903581087707   0.725057813333336   1.0
O342   O   0.368094802546757   0.952266743719257   0.740664417777779   1.0
O343   O   0.109700630556759   0.884931388612848   0.709086693333333   1.0
O344   O   0.976399595714781   0.683531512251392   0.668715582222219   1.0
O345   O   0.992220479101860   0.578835997163686   0.612268915555553   1.0
O346   O   0.011896092179818   0.234820179661718   0.572771115555554   1.0
O347   O   0.071529718775423   0.011013307290931   0.526451111111108   1.0
O348   O   0.251379958179122   0.011988205466331   0.481175571111109   1.0
O349   O   0.433518103365102   0.167587862387961   0.465788862222219   1.0
O350   O   0.682682886510818   0.221170221917745   0.466917757777779   1.0
O351   O   0.615446367500645   0.446851998723034   0.737826706666667   1.0
O352   O   0.153902560313796   0.459393073669538   0.759475537777774   1.0


# Number_of_total_atoms: 352
# Number_of_atom_type: 3
# Name_of_each_atom: C H O
# Number_of_each_atom: 100 202 50
# Created_by: Lihua Chen (lihua.chen@mse.gatech.edu)
# Tool: VASP
# K-points: 1 1 1
# Pseudopotential: PBE-HSE06
# Material_class: MC_Pol
# Geometry_class: GC_PD
# Bandgap_(eV): 5.02
