#======================================================================

# Note: Disordered slab of polyethylene oxide
# Common_name: Disordered slab-5

#----------------------------------------------------------------------

data_1
_audit_creation_method   'vasp2cif'
_cell_length_a    13.0827103
_cell_length_b    8.7349587
_cell_length_c    45.0
_cell_angle_alpha    90.0
_cell_angle_beta    90.0
_cell_angle_gamma    90.0

_symmetry_space_group_name_H-M    'P 1'
loop_
_atom_site_label
_atom_site_type_symbol
_atom_site_fract_x
_atom_site_fract_y
_atom_site_fract_z
_atom_site_occupancy
C1   C   0.291717527368931   0.056609220144338   0.327113342222219   1.0
C2   C   0.558435877006310   0.557733535706355   0.204188877777774   1.0
C3   C   0.759854492841598   0.568311673872024   0.298920017777775   1.0
C4   C   0.692551856017175   0.658203466949423   0.277211084444445   1.0
C5   C   0.023906025038251   0.451699857493317   0.281642235555559   1.0
C6   C   0.931126320209046   0.518294253640832   0.300042215555557   1.0
C7   C   0.043603633109569   0.081406177684620   0.243155586666667   1.0
C8   C   0.080262917692217   0.238304412360875   0.256651137777780   1.0
C9   C   0.898227877139497   0.821638584278595   0.231037817777775   1.0
C10   C   0.972509251389596   0.836361161043612   0.257724424444447   1.0
C11   C   0.937883177004998   0.992297639598455   0.163606686666668   1.0
C12   C   0.918499020803054   0.833029662750441   0.177453360000001   1.0
C13   C   0.013984617545191   0.305242404866782   0.156344435555553   1.0
C14   C   0.073307210662613   0.155178673025667   0.149964482222224   1.0
C15   C   0.840380406497268   0.361235743450052   0.208222197777779   1.0
C16   C   0.936247392101926   0.446181731803726   0.196571097777778   1.0
C17   C   0.652697698274338   0.118693108417332   0.168297746666667   1.0
C18   C   0.707449418948002   0.198807923384912   0.195919968888887   1.0
C19   C   0.426574713650886   0.081097097803109   0.158993359999997   1.0
C20   C   0.513514000229755   0.155327477392653   0.139897748888892   1.0
C21   C   0.384526966098150   0.052682492934970   0.227562204444446   1.0
C22   C   0.331487421226470   0.148000585280386   0.203702206666669   1.0
C23   C   0.593229905885785   0.654619992650908   0.231382242222225   1.0
C24   C   0.497125866954342   0.612994289257486   0.154857804444447   1.0
C25   C   0.209295729799962   0.676577875519889   0.208351135555553   1.0
C26   C   0.226799763348730   0.631414433590855   0.174953293333331   1.0
C27   C   0.048235716111513   0.542415730025148   0.785244411111108   1.0
C28   C   0.934588867262470   0.562828053211057   0.790604486666666   1.0
C29   C   0.210549246817763   0.725072563880580   0.729119957777776   1.0
C30   C   0.191852937384084   0.622004074272269   0.756704373333335   1.0
C31   C   0.322620955689892   0.617344533065740   0.658046637777780   1.0
C32   C   0.299414732129321   0.732296513319518   0.684246657777777   1.0
C33   C   0.490690044554455   0.430085570982726   0.621337808888889   1.0
C34   C   0.427492031219252   0.402106045447013   0.648811086666669   1.0
C35   C   0.398362004545803   0.649273716657639   0.552653333333332   1.0
C36   C   0.480524001207918   0.578225893615276   0.575857800000001   1.0
C37   C   0.613057555818536   0.152705873698061   0.272651080000003   1.0
C38   C   0.214524103617890   0.437011671274419   0.503653293333336   1.0
C39   C   0.960363358347848   0.479026809823381   0.466411084444445   1.0
C40   C   0.058501196040396   0.401808310782279   0.479653337777776   1.0
C41   C   0.977737334747829   0.657058618949165   0.392582195555555   1.0
C42   C   0.940925551183383   0.536359673915804   0.414362251111108   1.0
C43   C   0.210671706152510   0.489410396410918   0.360377757777776   1.0
C44   C   0.144806003997502   0.596348520800674   0.380728913333336   1.0
C45   C   0.409407170011249   0.509444858623084   0.324684482222224   1.0
C46   C   0.383426238521842   0.588792686564162   0.354115551111114   1.0
C47   C   0.281903131341217   0.630418504440094   0.256999971111114   1.0
C48   C   0.342601402707814   0.501969150695587   0.272480011111114   1.0
C49   C   0.273525654695575   0.568597948837471   0.516924455555554   1.0
C50   C   0.518016049013944   0.067301886613386   0.263966711111109   1.0
C51   C   0.390297979769528   0.555317954737440   0.157639991111111   1.0
C52   C   0.787799810869465   0.121028563077239   0.291873337777780   1.0
C53   C   0.574227727109417   0.643148993938574   0.722291142222225   1.0
C54   C   0.851731448949074   0.511219234499642   0.674595557777778   1.0
C55   C   0.838981690208335   0.496908920702737   0.707391104444447   1.0
C56   C   0.775050052128726   0.232969493032634   0.615755548888892   1.0
C57   C   0.840403444537024   0.357995854061677   0.631753371111110   1.0
C58   C   0.700654076242905   0.320170889874959   0.557622188888892   1.0
C59   C   0.740684069110664   0.166741383677064   0.567317793333331   1.0
C60   C   0.796528644374249   0.704683389058268   0.557273355555559   1.0
C61   C   0.750972571791948   0.571356908648006   0.538233355555555   1.0
C62   C   0.710988364544008   0.861123613555264   0.627906631111109   1.0
C63   C   0.657383149422792   0.528231404230908   0.711171128888886   1.0
C64   C   0.800839700623804   0.814391932957854   0.607231140000003   1.0
C65   C   0.545854355576459   0.967145843517265   0.631306626666664   1.0
C66   C   0.410683725068800   0.120845356715883   0.534766642222223   1.0
C67   C   0.383747272917908   0.109420002180436   0.568715584444448   1.0
C68   C   0.534151963909189   0.804763873697539   0.489975568888887   1.0
C69   C   0.513040176392195   0.965680444487965   0.502104442222219   1.0
C70   C   0.582574583188624   0.820734138101876   0.408508895555556   1.0
C71   C   0.523725821552432   0.855502648226604   0.437179988888886   1.0
C72   C   0.454206877912753   0.024657208739868   0.347039964444441   1.0
C73   C   0.520752553849640   0.008446416581222   0.374575551111114   1.0
C74   C   0.845723374307234   0.045252520770362   0.318804422222222   1.0
C75   C   0.447487933750239   0.000306687197046   0.613619995555553   1.0
C76   C   0.633794948436638   0.054674454270746   0.715762244444441   1.0
C77   C   0.184782338259069   0.031869583997001   0.336533355555552   1.0
C78   C   0.361886412787115   0.311378598733384   0.425366635555555   1.0
C79   C   0.824428192069654   0.072396404118088   0.398837791111113   1.0
C80   C   0.841672417067890   0.989183852695263   0.367922211111114   1.0
C81   C   0.804929151415969   0.080696409016795   0.465393319999997   1.0
C82   C   0.892135829072053   0.024370945222671   0.445168897777776   1.0
C83   C   0.612996322329323   0.403743076655871   0.455391100000000   1.0
C84   C   0.683012433593369   0.289546829797835   0.472535535555558   1.0
C85   C   0.645627389609018   0.895468286530075   0.728786637777780   1.0
C86   C   0.449207684435237   0.414985236278220   0.436940002222222   1.0
C87   C   0.243646257304960   0.955010811900003   0.455502235555557   1.0
C88   C   0.089266999973241   0.960425651468732   0.522793324444443   1.0
C89   C   0.273991896006443   0.085000894165646   0.434126706666667   1.0
C90   C   0.035639037271963   0.309718636677701   0.569808875555559   1.0
C91   C   0.029753429608540   0.146008612496359   0.558119964444444   1.0
C92   C   0.101451096108121   0.591196807833789   0.607924482222224   1.0
C93   C   0.167224951851146   0.478992419277269   0.589902242222223   1.0
C94   C   0.157998973653037   0.999315440380961   0.637600031111113   1.0
C95   C   0.104172145430752   0.839051328313666   0.631284417777778   1.0
C96   C   0.204365642798038   0.241315348176748   0.689886644444442   1.0
C97   C   0.140823557027019   0.242242610717781   0.661466642222223   1.0
C98   C   0.457539383104738   0.082837186167808   0.706900024444444   1.0
C99   C   0.363713182581137   0.187817625285398   0.711957804444445   1.0
C100   C   0.174165501471052   0.909813093907360   0.502300008888888   1.0
H101   H   0.152235534864666   0.223490352621816   0.269544473333333   1.0
H102   H   0.983990052886824   0.093049037541526   0.226780022222222   1.0
H103   H   0.110845028801101   0.025882091463124   0.233135562222223   1.0
H104   H   0.037083829640409   0.765759659516192   0.255557760000002   1.0
H105   H   0.497018855488989   0.470120104860939   0.207106695555552   1.0
H106   H   0.844599906794542   0.911999732752030   0.229986657777779   1.0
H107   H   0.930125021571406   0.801180616915794   0.277084435555558   1.0
H108   H   0.959576082640922   0.757322309949785   0.161577775555557   1.0
H109   H   0.894069610331428   0.021989754799868   0.143788911111109   1.0
H110   H   0.849117403448119   0.714872195102650   0.230673302222222   1.0
H111   H   0.099715882266381   0.321418703445040   0.240006680000000   1.0
H112   H   0.648325408535570   0.730579126836631   0.221199968888889   1.0
H113   H   0.090872164309864   0.445632238650425   0.295679982222225   1.0
H114   H   0.037626469493865   0.521202132300864   0.262653351111112   1.0
H115   H   0.957007822759785   0.619004483673173   0.313162231111114   1.0
H116   H   0.625516900729657   0.709159506386676   0.288657804444448   1.0
H117   H   0.724380199720542   0.471448044740043   0.309944408888889   1.0
H118   H   0.789817565554443   0.648895958718157   0.315784455555559   1.0
H119   H   0.738528682393891   0.757780205646533   0.269244468888885   1.0
H120   H   0.632518393379087   0.501923300450180   0.197866653333335   1.0
H121   H   0.531018026134845   0.722416684122386   0.239968873333332   1.0
H122   H   0.891287319875914   0.072133059999473   0.178095584444442   1.0
H123   H   0.911910126145649   0.433016266007073   0.317740037777774   1.0
H124   H   0.831169883812223   0.816349515195760   0.177113342222221   1.0
H125   H   0.648547304452656   0.270725893643892   0.208822208888890   1.0
H126   H   0.052263941058143   0.398671489998002   0.142453342222225   1.0
H127   H   0.532325201758844   0.944100548523487   0.256580013333334   1.0
H128   H   0.599918244769206   0.258132748813111   0.286168924444446   1.0
H129   H   0.655334774171372   0.191194870789715   0.253917780000002   1.0
H130   H   0.469769249572089   0.057547942384659   0.284464433333333   1.0
H131   H   0.277355014121191   0.061543462134516   0.196944426666668   1.0
H132   H   0.423227043405525   0.954507054509598   0.219891102222220   1.0
H133   H   0.324837575895877   0.014525506571658   0.244944424444448   1.0
H134   H   0.298436188715421   0.249890053859097   0.214111073333335   1.0
H135   H   0.542712842919101   0.068732895096574   0.121773359999999   1.0
H136   H   0.461582757817389   0.965600306730700   0.166373360000001   1.0
H137   H   0.364959117072246   0.053689881785019   0.143200006666667   1.0
H138   H   0.471282559853059   0.245024604409409   0.129804484444442   1.0
H139   H   0.609678989834393   0.021760801227373   0.178735522222219   1.0
H140   H   0.701097577617382   0.051171335246266   0.151144408888889   1.0
H141   H   0.735509338611585   0.097994624748480   0.209839968888886   1.0
H142   H   0.915601853539478   0.530223377014934   0.180026668888885   1.0
H143   H   0.787761615420010   0.437664233031804   0.219791075555555   1.0
H144   H   0.865352464466021   0.267405866498258   0.223771073333332   1.0
H145   H   0.969207076304365   0.499771052151630   0.214919960000003   1.0
H146   H   0.066787109090079   0.119746358961031   0.126391093333332   1.0
H147   H   0.935765993381359   0.298213132936738   0.147782220000003   1.0
H148   H   0.151272446963837   0.177216567721153   0.155024466666667   1.0
H149   H   0.379826067080302   0.496828782945478   0.137431082222221   1.0
H150   H   0.952314498624951   0.781317889917439   0.793082173333332   1.0
H151   H   0.547069677144805   0.519736836305817   0.147399986666670   1.0
H152   H   0.200245571439432   0.362369131751016   0.522384475555555   1.0
H153   H   0.261746574026027   0.373794497734714   0.487915546666663   1.0
H154   H   0.217245168227869   0.619405172459487   0.529075537777778   1.0
H155   H   0.522472312178309   0.496141933676228   0.563944413333331   1.0
H156   H   0.434707837259076   0.696394729376337   0.534235551111109   1.0
H157   H   0.343579953765392   0.724568817938426   0.561882188888887   1.0
H158   H   0.542835011794153   0.653589787436545   0.583182186666669   1.0
H159   H   0.358087375824567   0.331229866032452   0.643868848888886   1.0
H160   H   0.505327516118733   0.322700896112998   0.608217791111109   1.0
H161   H   0.560537903220251   0.488277008109954   0.627677748888885   1.0
H162   H   0.313341326529262   0.631128158625408   0.499260033333336   1.0
H163   H   0.480867775540361   0.332947126584585   0.661660004444443   1.0
H164   H   0.331747512593012   0.676509094427658   0.635606639999999   1.0
H165   H   0.257772000041918   0.534058506767757   0.656731075555555   1.0
H166   H   0.238135335000116   0.801317973031743   0.680064477777776   1.0
H167   H   0.195177860049384   0.507796253232428   0.747122193333333   1.0
H168   H   0.244838831293237   0.828507466211605   0.736486646666670   1.0
H169   H   0.140066901886527   0.738192396948598   0.717213355555558   1.0
H170   H   0.258360417871515   0.634013323955386   0.771640015555555   1.0
H171   H   0.058959854824579   0.430016789890487   0.774684484444442   1.0
H172   H   0.094013684610900   0.529811228529333   0.805788846666665   1.0
H173   H   0.831154718758846   0.120112657201233   0.270844437777775   1.0
H174   H   0.357475927598884   0.819097106893018   0.687846631111114   1.0
H175   H   0.508507522328919   0.696864199254890   0.138028886666667   1.0
H176   H   0.094350166876353   0.327326058221658   0.461966706666665   1.0
H177   H   0.926310827199160   0.554974484309810   0.482224444444448   1.0
H178   H   0.385130831797142   0.486055978719165   0.176420000000000   1.0
H179   H   0.208676699047594   0.795319020798573   0.208802202222223   1.0
H180   H   0.176359083637280   0.706938591478398   0.161657800000000   1.0
H181   H   0.206918454809781   0.516336671402925   0.168006642222224   1.0
H182   H   0.137322814524140   0.632925682865562   0.216024442222221   1.0
H183   H   0.305017500846134   0.390829483830302   0.271108924444441   1.0
H184   H   0.304948692473914   0.744603383184860   0.262353346666664   1.0
H185   H   0.202294237150539   0.619874642338033   0.264479999999999   1.0
H186   H   0.421698277611483   0.497046379852946   0.265602195555559   1.0
H187   H   0.455223333960092   0.581557391908447   0.368522220000003   1.0
H188   H   0.907025817119866   0.392729859157775   0.460508897777778   1.0
H189   H   0.422561944217321   0.381670894448533   0.323848895555557   1.0
H190   H   0.358584237701876   0.694299802470731   0.353002253333337   1.0
H191   H   0.151012638413313   0.555100483760732   0.404626635555559   1.0
H192   H   0.197234100643506   0.513852412376032   0.336044482222221   1.0
H193   H   0.191226033645336   0.366364537018363   0.364291128888887   1.0
H194   H   0.159252483027160   0.718684508491151   0.381415557777778   1.0
H195   H   0.856944374897608   0.543148429539798   0.418886653333331   1.0
H196   H   0.003229865909361   0.759680580974013   0.402642228888887   1.0
H197   H   0.916970255009012   0.693338149383578   0.379024420000000   1.0
H198   H   0.955853444220956   0.422884563838863   0.405720011111114   1.0
H199   H   0.033735876579030   0.323387848416502   0.496837786666667   1.0
H200   H   0.480952039425652   0.574390763862453   0.318959977777780   1.0
H201   H   0.840166383566562   0.923768351646586   0.316228908888888   1.0
H202   H   0.243638674778268   0.886733305333202   0.517426639999996   1.0
H203   H   0.776647633938666   0.240422373147567   0.297742208888892   1.0
H204   H   0.532401592657756   0.896990892469816   0.650077820000000   1.0
H205   H   0.839501582481731   0.913648120625915   0.596106635555557   1.0
H206   H   0.741685360104626   0.917300158499891   0.645911153333330   1.0
H207   H   0.689914780120141   0.755605140983668   0.636980015555558   1.0
H208   H   0.859596608204342   0.758180894432847   0.620937773333331   1.0
H209   H   0.669934340745890   0.583446296088383   0.533802202222219   1.0
H210   H   0.792286404140583   0.810259068540304   0.544393328888887   1.0
H211   H   0.877521097444159   0.693841689257212   0.560713366666668   1.0
H212   H   0.791567936805876   0.564797106596508   0.517653317777778   1.0
H213   H   0.680834016480517   0.084405550766945   0.574146695555555   1.0
H214   H   0.649541020563603   0.372374845916561   0.574862248888891   1.0
H215   H   0.650649323022918   0.321544691447713   0.538237762222224   1.0
H216   H   0.780943234675156   0.123776154774490   0.547771115555555   1.0
H217   H   0.917596860644387   0.313599628124173   0.635813311111114   1.0
H218   H   0.692949288955823   0.261521442568473   0.614757793333332   1.0
H219   H   0.775141898540703   0.127096078885870   0.628226640000001   1.0
H220   H   0.845899201788484   0.466479526686257   0.618300035555556   1.0
H221   H   0.832079618853903   0.371962800465212   0.711231146666670   1.0
H222   H   0.935009330597190   0.492512826649083   0.669793362222222   1.0
H223   H   0.834647894022389   0.623389335544310   0.665188853333333   1.0
H224   H   0.907461445507970   0.537699084942439   0.717782253333333   1.0
H225   H   0.924361590426720   0.073346586057703   0.317402224444443   1.0
H226   H   0.401450156700328   0.065905268676310   0.628446706666665   1.0
H227   H   0.570956164946956   0.069305319096699   0.641144480000001   1.0
H228   H   0.325250166244224   0.024943369222797   0.570277744444446   1.0
H229   H   0.162585278678840   0.122940386655749   0.352564408888888   1.0
H230   H   0.171536008100709   0.911804952208875   0.344431135555553   1.0
H231   H   0.889942246905825   0.559965921762171   0.770382182222221   1.0
H232   H   0.916404577115799   0.459633449669319   0.801995511111109   1.0
H233   H   0.129289410314314   0.044554211801824   0.318904453333332   1.0
H234   H   0.310650890129395   0.980471584828443   0.308884431111110   1.0
H235   H   0.298573805459867   0.183742082260792   0.320153300000001   1.0
H236   H   0.599726969418562   0.059391213835966   0.371271091111112   1.0
H237   H   0.494649453485188   0.943390665373151   0.332888879999999   1.0
H238   H   0.471167973504699   0.136804275903444   0.336517757777777   1.0
H239   H   0.494481208530622   0.620092124762991   0.713275571111112   1.0
H240   H   0.480164763718726   0.074044895026233   0.393497806666666   1.0
H241   H   0.606415293014628   0.701008420337466   0.409002262222224   1.0
H242   H   0.656542513213033   0.883379105158220   0.408875528888892   1.0
H243   H   0.451332748688934   0.803653301760889   0.438051097777780   1.0
H244   H   0.574938604273761   0.021176906079703   0.514115566666668   1.0
H245   H   0.470227908356264   0.725461896001868   0.488868884444443   1.0
H246   H   0.583239690020498   0.743344121363734   0.503966693333332   1.0
H247   H   0.494305381049365   0.054262305785144   0.485477786666664   1.0
H248   H   0.349144527032749   0.212190974640784   0.578019968888889   1.0
H249   H   0.474561704542218   0.210256208767191   0.532871080000000   1.0
H250   H   0.345819313907761   0.175991581963636   0.523602211111111   1.0
H251   H   0.514331896503130   0.976499213442189   0.440097808888886   1.0
H252   H   0.641721341181118   0.535741388222021   0.688042195555553   1.0
H253   H   0.404561056434922   0.893327497930812   0.608144464444443   1.0
H254   H   0.560407853715141   0.649273716657639   0.747633362222224   1.0
H255   H   0.155759323050972   0.792319647716248   0.493937768888891   1.0
H256   H   0.326717996652420   0.025401264919544   0.418551126666664   1.0
H257   H   0.314365655562973   0.915663127291033   0.464988880000000   1.0
H258   H   0.206681684299006   0.876567430135644   0.440695531111110   1.0
H259   H   0.210671706152510   0.133449858211691   0.420339968888889   1.0
H260   H   0.470923330007544   0.493955306279808   0.418366666666664   1.0
H261   H   0.380628790656630   0.262734968626695   0.402706655555555   1.0
H262   H   0.299766387091822   0.385929643834494   0.419697742222219   1.0
H263   H   0.737160280924357   0.365379964532629   0.484202237777779   1.0
H264   H   0.657046949973356   0.450016964590802   0.438042195555553   1.0
H265   H   0.586839861462039   0.496634231367345   0.470264435555556   1.0
H266   H   0.641522773763477   0.230370808736623   0.490333302222226   1.0
H267   H   0.943990672941830   0.114113808002323   0.440460035555553   1.0
H268   H   0.832599220667603   0.132568342881804   0.486044479999997   1.0
H269   H   0.760733316857134   0.981215744042387   0.471868897777775   1.0
H270   H   0.941674631440854   0.937174448231794   0.455755531111109   1.0
H271   H   0.924522252854594   0.969710240301424   0.365622202222219   1.0
H272   H   0.739178333712701   0.096598006811412   0.403235542222220   1.0
H273   H   0.859543247701509   0.189363173520214   0.396562195555553   1.0
H274   H   0.806671947784395   0.875113376323121   0.366384464444444   1.0
H275   H   0.649456749034641   0.410692210828657   0.719946628888891   1.0
H276   H   0.015719540927236   0.968702954485636   0.512666660000001   1.0
H277   H   0.082800564650583   0.866939359427079   0.539880033333333   1.0
H278   H   0.410477277021108   0.476851642126256   0.455593364444446   1.0
H279   H   0.625631494721702   0.890053435513096   0.752860008888888   1.0
H280   H   0.692261442187558   0.129958198886506   0.724757808888889   1.0
H281   H   0.957496804007043   0.134239879119292   0.546162246666668   1.0
H282   H   0.724425977696683   0.875182157415352   0.722797817777774   1.0
H283   H   0.645925385965320   0.054594316513480   0.691442193333330   1.0
H284   H   0.331495294212850   0.168928022521733   0.735357751111110   1.0
H285   H   0.478505948419574   0.073644206239919   0.683368853333334   1.0
H286   H   0.422867523100315   0.973980449386673   0.713706631111108   1.0
H287   H   0.083824893684302   0.328505182285518   0.660824415555552   1.0
H288   H   0.164519059938215   0.216312367910795   0.709715524444448   1.0
H289   H   0.236369508235612   0.352317567340073   0.691431088888891   1.0
H290   H   0.196416212013808   0.263055519655751   0.643362257777781   1.0
H291   H   0.389732309519992   0.307989893529779   0.709255560000003   1.0
H292   H   0.971286064478548   0.342037060804877   0.584879982222219   1.0
H293   H   0.159107276112351   0.048561088216708   0.615604486666669   1.0
H294   H   0.237225599958443   0.994175290147624   0.644680022222225   1.0
H295   H   0.028217081287814   0.845851646671207   0.623028904444446   1.0
H296   H   0.189169785407536   0.513818021829913   0.567913311111113   1.0
H297   H   0.092309381795303   0.533383128646044   0.628984408888890   1.0
H298   H   0.022018021755016   0.612066923682193   0.598199973333337   1.0
H299   H   0.235872654001980   0.474905416553369   0.603288862222222   1.0
H300   H   0.031931846721392   0.057135896933318   0.574184417777779   1.0
H301   H   0.095810124298175   0.780138765853579   0.652133348888889   1.0
H302   H   0.033047739351076   0.405368751199703   0.553635577777776   1.0
O303   O   0.997595605247028   0.301807849417763   0.272648875555554   1.0
O304   O   0.012730810067694   0.980654779741549   0.264991084444446   1.0
O305   O   0.965904893575456   0.828645039844318   0.206488884444447   1.0
O306   O   0.046294359969124   0.024084784739735   0.166046651111110   1.0
O307   O   0.451967219667011   0.149614800124930   0.242980026666665   1.0
O308   O   0.787096516231806   0.298144454878759   0.184731124444447   1.0
O309   O   0.587864198139435   0.229248891583197   0.156433360000001   1.0
O310   O   0.393676553397349   0.197502902904397   0.180019971111108   1.0
O311   O   0.844271297515469   0.532524429680471   0.280962202222220   1.0
O312   O   0.008450366740902   0.329741639190580   0.187522211111109   1.0
O313   O   0.657811485743899   0.576749034886681   0.251959991111114   1.0
O314   O   0.415262157108224   0.533051117917708   0.666991084444447   1.0
O315   O   0.319999044846234   0.684602962118184   0.161728922222224   1.0
O316   O   0.288132513337089   0.606686257142805   0.225306702222220   1.0
O317   O   0.335997335353362   0.559153095938505   0.303948891111112   1.0
O318   O   0.311927437543275   0.495271889493878   0.367733342222223   1.0
O319   O   0.042846970325407   0.582942538697978   0.372160000000001   1.0
O320   O   0.992589127346186   0.558844016056995   0.440873293333333   1.0
O321   O   0.129044766817167   0.510406511710237   0.489824422222220   1.0
O322   O   0.344993842751379   0.525460881686826   0.538515557777778   1.0
O323   O   0.434937025243158   0.532856451857064   0.602340020000000   1.0
O324   O   0.683784536603248   0.056483335175926   0.289971075555556   1.0
O325   O   0.539548292221987   0.668770030933288   0.181186675555559   1.0
O326   O   0.799387616188369   0.081738188412956   0.346024408888887   1.0
O327   O   0.918980427167298   0.710441699054627   0.805355495555553   1.0
O328   O   0.728668217930348   0.184509069287302   0.451440006666665   1.0
O329   O   0.285992291673693   0.655524438827626   0.711671108888886   1.0
O330   O   0.343656344664304   0.010175159729144   0.352944440000002   1.0
O331   O   0.531491857616075   0.846515679576136   0.382088895555555   1.0
O332   O   0.583216651980742   0.800344963279564   0.461475542222224   1.0
O333   O   0.429219662534301   0.964421171218589   0.523966642222220   1.0
O334   O   0.469662238106736   0.074743307029031   0.586035580000001   1.0
O335   O   0.621129453581190   0.908519327057611   0.612533315555552   1.0
O336   O   0.753104928112641   0.710041021716563   0.586104415555553   1.0
O337   O   0.781654111839501   0.428631631652706   0.550328913333331   1.0
O338   O   0.816776757641726   0.196346583756600   0.588448926666665   1.0
O339   O   0.855927911206592   0.965829363337463   0.418104468888892   1.0
O340   O   0.802215684620030   0.380858057176617   0.661275566666667   1.0
O341   O   0.587588941719517   0.791873097236284   0.712237802222219   1.0
O342   O   0.541008249643809   0.129271246582995   0.723968931111109   1.0
O343   O   0.291151857119395   0.146214738256290   0.688786657777776   1.0
O344   O   0.105876738706044   0.087382096036698   0.658637746666663   1.0
O345   O   0.153672752350097   0.737631432647760   0.612177786666663   1.0
O346   O   0.119582025751960   0.335305512091317   0.589257813333333   1.0
O347   O   0.107886918508008   0.106992950063976   0.538066695555557   1.0
O348   O   0.187396674219713   0.016391479904762   0.479677751111112   1.0
O349   O   0.338993641095911   0.197983729447969   0.447964477777781   1.0
O350   O   0.530398995382477   0.309363695102533   0.443942262222222   1.0
O351   O   0.753532973974053   0.585564256875081   0.716222213333332   1.0
O352   O   0.092668611640818   0.652296009138546   0.767064413333330   1.0


# Number_of_total_atoms: 352
# Number_of_atom_type: 3
# Name_of_each_atom: C H O
# Number_of_each_atom: 100 202 50
# Created_by: Lihua Chen (lihua.chen@mse.gatech.edu)
# Tool: VASP
# K-points: 1 1 1
# Pseudopotential: PBE-HSE06
# Material_class: MC_Pol
# Geometry_class: GC_PD
# Bandgap_(eV): 5.17
