#======================================================================

# Note: Disordered slab of polyproplyene oxide
# Common_name: Disordered slab-1

#----------------------------------------------------------------------

data_1
_audit_creation_method   'vasp2cif'
_cell_length_a    13.631939
_cell_length_b    8.775692
_cell_length_c    49.0
_cell_angle_alpha    90.0
_cell_angle_beta    90.0
_cell_angle_gamma    90.0

_symmetry_space_group_name_H-M    'P 1'
loop_
_atom_site_label
_atom_site_type_symbol
_atom_site_fract_x
_atom_site_fract_y
_atom_site_fract_z
_atom_site_occupancy
C1   C   0.313595850157483   0.495926258578813   0.075432640816324   1.0
C2   C   0.113162162770827   0.702622209165952   0.406771444897956   1.0
C3   C   0.113308796349514   0.122032051717404   0.405767326530615   1.0
C4   C   0.980404812550880   0.285480142192775   0.483422416326533   1.0
C5   C   0.841613236385520   0.118571378758510   0.468646926530610   1.0
C6   C   0.926245217206443   0.221304052147680   0.457636697959181   1.0
C7   C   0.621350983158010   0.208652001460400   0.504051053061225   1.0
C8   C   0.764126013181247   0.069897188734515   0.527010236734696   1.0
C9   C   0.712775959458149   0.116827949294482   0.499614248979590   1.0
C10   C   0.843072859994457   0.260041703833728   0.588240800000001   1.0
C11   C   0.959483489472774   0.125427840904173   0.556589787755101   1.0
C12   C   0.075867394946528   0.851920942530803   0.418520402040819   1.0
C13   C   0.192043105533266   0.216763076917466   0.393189800000002   1.0
C14   C   0.179073585936678   0.116887181090675   0.574971412244899   1.0
C15   C   0.101160869337811   0.993883821355624   0.570812224489799   1.0
C16   C   0.189673604026545   0.511981938290454   0.544765316326533   1.0
C17   C   0.336871988643729   0.345613280411392   0.557687720408161   1.0
C18   C   0.227914627552252   0.385929280562721   0.562942893877548   1.0
C19   C   0.507031288799048   0.118805024150802   0.597130600000000   1.0
C20   C   0.547069547479637   0.377496851530339   0.577426520408160   1.0
C21   C   0.478906155609998   0.240760090486312   0.575448951020405   1.0
C22   C   0.518651161804641   0.688401131215635   0.626838763265305   1.0
C23   C   0.592074054908842   0.696263679263126   0.578189771428569   1.0
C24   C   0.853430960921990   0.147958212298242   0.565079591836735   1.0
C25   C   0.073446543444774   0.201046891800672   0.431587765306119   1.0
C26   C   0.571079418709253   0.607188185273593   0.603369420408164   1.0
C27   C   0.338097111496758   0.576011088356339   0.445865322448981   1.0
C28   C   0.793960367633687   0.163820232068311   0.265161240816326   1.0
C29   C   0.576405249465978   0.074629533488640   0.129663273469390   1.0
C30   C   0.529838132344928   0.019134194773471   0.102336728571430   1.0
C31   C   0.419318176233034   0.193946688192796   0.186200006122448   1.0
C32   C   0.608080633283350   0.202807493699645   0.187573453061226   1.0
C33   C   0.519978698554915   0.125973700991331   0.175365291836734   1.0
C34   C   0.855264999351888   0.051418885257142   0.169444881632650   1.0
C35   C   0.605989984256823   0.957097924585320   0.081563248979592   1.0
C36   C   0.801428058033416   0.073435337065156   0.218587759183670   1.0
C37   C   0.787688420554112   0.137883861466420   0.188863248979594   1.0
C38   C   0.767221552267806   0.017852244586521   0.278989830612247   1.0
C39   C   0.757824679233089   0.311957814836710   0.277742891836738   1.0
C40   C   0.647312139527621   0.247257492628499   0.384034683673470   1.0
C41   C   0.896983121770134   0.552662536470059   0.325902044897958   1.0
C42   C   0.743468570391933   0.412479870533289   0.341050985714283   1.0
C43   C   0.802044257973868   0.471597692808729   0.315602051020406   1.0
C44   C   0.805785647955148   0.081590807881589   0.384165316326531   1.0
C45   C   0.760582738816538   0.241668258184085   0.381522432653064   1.0
C46   C   0.463669966539612   0.447998425651221   0.372395885714283   1.0
C47   C   0.472670865091168   0.466298942579115   0.424397993877548   1.0
C48   C   0.507368760966436   0.377633570093387   0.399820444897962   1.0
C49   C   0.347039383025411   0.518237866597872   0.475422451020407   1.0
C50   C   0.229499200370540   0.614082137340283   0.439293842857140   1.0
C51   C   0.120637262241267   0.846246187765018   0.587193859183671   1.0
C52   C   0.400348006252081   0.855236977323273   0.532208189795917   1.0
C53   C   0.097691054808855   0.690463623837303   0.376144877551020   1.0
C54   C   0.502453730170011   0.791504054609028   0.537779593877552   1.0
C55   C   0.037648341882985   0.584318102777537   0.147285695918370   1.0
C56   C   0.602762365647322   0.676185513347555   0.222679608163269   1.0
C57   C   0.511924195083324   0.666066698785691   0.239832665306125   1.0
C58   C   0.598419601202735   0.637772576795086   0.149206122448980   1.0
C59   C   0.757663212841550   0.626696595550527   0.177128577551024   1.0
C60   C   0.651236834319754   0.671570515464765   0.176722469387755   1.0
C61   C   0.909050458632478   0.672937951787731   0.240630597959182   1.0
C62   C   0.971455403372914   0.644210872487321   0.192159185714289   1.0
C63   C   0.888525102701827   0.614503779303099   0.211346957142858   1.0
C64   C   0.994738811551315   0.708365323213258   0.128377565306124   1.0
C65   C   0.036085739526854   0.428011420637823   0.132295920408161   1.0
C66   C   0.846256545015351   0.263971935204651   0.089285714285715   1.0
C67   C   0.300956393657572   0.810522566197626   0.196616310204085   1.0
C68   C   0.008232057082999   0.146823350226967   0.098316310204083   1.0
C69   C   0.951472919589797   0.293384954713545   0.095912232653063   1.0
C70   C   0.258438641780891   0.114870223339651   0.120573473469385   1.0
C71   C   0.200405708975076   0.942899465933856   0.081816342857145   1.0
C72   C   0.169199598090927   0.038297412899176   0.107108175510206   1.0
C73   C   0.052143667896402   0.783732587697926   0.028591818367346   1.0
C74   C   0.190825267043813   0.614480954892215   0.046269397959186   1.0
C75   C   0.147060429187661   0.783174227172054   0.044732659183673   1.0
C76   C   0.397538457295035   0.517326325946719   0.094983665306124   1.0
C77   C   0.388515448902759   0.705801411444249   0.205957140816324   1.0
C78   C   0.347266753467721   0.386498933645349   0.053561230612246   1.0
C79   C   0.829399265944488   0.667228954708072   0.508822461224490   1.0
C80   C   0.555461530454323   0.711635697788850   0.513632638775512   1.0
C81   C   0.528583629959023   0.711293924171450   0.269087732653063   1.0
C82   C   0.276946669142227   0.785327880695903   0.166479577551023   1.0
C83   C   0.707252291841975   0.585845059284210   0.473526546938778   1.0
C84   C   0.722004375166293   0.622149968344374   0.502722448979590   1.0
C85   C   0.782237787302307   0.705003764945261   0.411050991836731   1.0
C86   C   0.627725630227658   0.839591430510552   0.422685740816327   1.0
C87   C   0.693211559998915   0.704821408955553   0.430659157142856   1.0
C88   C   0.408233898347113   0.029598361018138   0.451502040816329   1.0
C89   C   0.567367400925136   0.860125480702834   0.341810187755101   1.0
C90   C   0.396504048323571   0.979227085453772   0.336502075510204   1.0
C91   C   0.467462295715968   0.889843866443812   0.357261191836734   1.0
C92   C   0.428979208313649   0.951810592258710   0.404644869387752   1.0
C93   C   0.485104789568091   0.978680245386919   0.430102057142854   1.0
C94   C   0.389659834892157   0.186976229338953   0.305093881632651   1.0
C95   C   0.056633065919676   0.024592476581901   0.306920420408161   1.0
C96   C   0.080371486404097   0.286239102283901   0.289214310204081   1.0
C97   C   0.228934350425128   0.677439044123247   0.260348963265308   1.0
C98   C   0.454206778654161   0.314523994233163   0.295044879591835   1.0
C99   C   0.114680692159787   0.169283083316962   0.309485687755099   1.0
C100   C   0.106398546824487   0.211850666591310   0.213848971428568   1.0
C101   C   0.180738741568604   0.446084046705380   0.238512234693879   1.0
C102   C   0.104718697758258   0.315829908342273   0.239706118367344   1.0
C103   C   0.223769993395656   0.730061629327921   0.289693871428568   1.0
C104   C   0.209502037824557   0.808585374236017   0.240438773469386   1.0
C105   C   0.286123580805345   0.246365289483727   0.312032661224492   1.0
H106   H   0.098190000703497   0.226142371450592   0.328793895918366   1.0
H107   H   0.286805831510840   0.298194797629634   0.332091818367346   1.0
H108   H   0.028111833540336   0.359184928094557   0.241291824489799   1.0
H109   H   0.173021585557272   0.494604368521593   0.218155102040818   1.0
H110   H   0.392161283878984   0.104563378021929   0.287791816326532   1.0
H111   H   0.132374396628386   0.844103929353949   0.243691853061222   1.0
H112   H   0.107425539389517   0.393279116906108   0.294399963265306   1.0
H113   H   0.000867066673344   0.294140450690385   0.286842891836734   1.0
H114   H   0.437738050324313   0.784564476510795   0.362608151020410   1.0
H115   H   0.252401334835788   0.393062529997636   0.240542859183677   1.0
H116   H   0.545125532031797   0.884818644501195   0.542685683673469   1.0
H117   H   0.304829591740400   0.630559459014741   0.259530593877550   1.0
H118   H   0.535354522933240   0.071738638958614   0.426373465306121   1.0
H119   H   0.370931721452102   0.033251543012220   0.402024483673472   1.0
H120   H   0.399064256376150   0.837734106894359   0.405202048979589   1.0
H121   H   0.647818362450124   0.599929418671486   0.426632628571426   1.0
H122   H   0.606598907169406   0.830042394377557   0.402759163265308   1.0
H123   H   0.667844772486141   0.942455216067295   0.425271404081634   1.0
H124   H   0.698566762952801   0.527912305946927   0.514422436734691   1.0
H125   H   0.628107322076488   0.544252920453452   0.470248942857140   1.0
H126   H   0.760076794651148   0.507366951802773   0.464938806122447   1.0
H127   H   0.252702018399582   0.908133102210058   0.244165306122447   1.0
H128   H   0.267219454253720   0.334702471326480   0.297565304081630   1.0
H129   H   0.397090861395434   0.907175912737138   0.318975487755104   1.0
H130   H   0.315158313135058   0.975033854880046   0.342697922448977   1.0
H131   H   0.878944660770564   0.489715967698046   0.212104097959184   1.0
H132   H   0.362906465470537   0.586505998615266   0.208595938775510   1.0
H133   H   0.404426604315056   0.304254798368035   0.059469379591839   1.0
H134   H   0.255665756720305   0.436705857498190   0.085938785714283   1.0
H135   H   0.200750604884604   0.851043530242400   0.034893891836738   1.0
H136   H   0.214915867801345   0.559043754042413   0.026265320408164   1.0
H137   H   0.132997866260993   0.545757052549249   0.055589793877552   1.0
H138   H   0.132088267120324   0.966236827819394   0.120477559183676   1.0
H139   H   0.272633144851952   0.877001631324347   0.084967361224493   1.0
H140   H   0.217710715988389   0.035429228828903   0.067161210204084   1.0
H141   H   0.559547684302288   0.906378254843034   0.065263281632653   1.0
H142   H   0.990435652624328   0.068998091546511   0.080691824489797   1.0
H143   H   0.983757240991174   0.104412962533324   0.118655108163267   1.0
H144   H   0.104645377301054   0.615176136537151   0.156075497959186   1.0
H145   H   0.064430951458924   0.343414080621791   0.144555112244895   1.0
H146   H   0.038015061540399   0.603929103254764   0.200289785714283   1.0
H147   H   0.978505009448767   0.756931282456129   0.184014300000001   1.0
H148   H   0.639088899972336   0.794387018140561   0.178785714285716   1.0
H149   H   0.788627267184808   0.676675503196783   0.159048975510203   1.0
H150   H   0.759687825774456   0.501167953478770   0.175612236734693   1.0
H151   H   0.503414693977135   0.542213252242675   0.241626546938775   1.0
H152   H   0.661147192633415   0.618526288297268   0.232455118367348   1.0
H153   H   0.620632083227484   0.800677188761867   0.221740799999999   1.0
H154   H   0.321268933201651   0.926672950691525   0.199979587755102   1.0
H155   H   0.452600242709423   0.726221476323460   0.192569383673472   1.0
H156   H   0.092218729852007   0.448408672501266   0.116163255102037   1.0
H157   H   0.534400850825406   0.764896523259935   0.494906134693878   1.0
H158   H   0.752359499261260   0.399922467652694   0.262269391836732   1.0
H159   H   0.643057521017369   0.574085302902610   0.610830579591834   1.0
H160   H   0.524248142542305   0.595838561790913   0.512430618367347   1.0
H161   H   0.207741444558991   0.701414315816919   0.454022465306124   1.0
H162   H   0.177738346687143   0.526043587217963   0.446151032653063   1.0
H163   H   0.474181978073702   0.263361088789352   0.402565314285717   1.0
H164   H   0.485222322371015   0.586266701247034   0.419322422448978   1.0
H165   H   0.790850003069998   0.321288190150703   0.394755071428570   1.0
H166   H   0.630043781739339   0.153660349520017   0.396975536734693   1.0
H167   H   0.605637950697989   0.227694431390709   0.365195918367348   1.0
H168   H   0.752719088605076   0.546190112415069   0.305526502040813   1.0
H169   H   0.660267112404185   0.406394880312575   0.341071461224487   1.0
H170   H   0.749784737152943   0.492427993142876   0.357463291836737   1.0
H171   H   0.502791217008820   0.418519223327344   0.441830616326527   1.0
H172   H   0.684460266437519   0.284589021583713   0.287140826530610   1.0
H173   H   0.871601508780223   0.170537696628365   0.264518351020406   1.0
H174   H   0.616201451605676   0.986690907110230   0.139224499999997   1.0
H175   H   0.620984116786317   0.174883724269264   0.124369408163268   1.0
H176   H   0.648126462420350   0.872580304778246   0.090606106122451   1.0
H177   H   0.595866662842312   0.212195915718098   0.210587755102040   1.0
H178   H   0.617895854727635   0.322751356816077   0.181059195918365   1.0
H179   H   0.524123340047225   0.006883081129104   0.181869391836735   1.0
H180   H   0.884673728366892   0.066126534522858   0.222546946938777   1.0
H181   H   0.798442495964807   0.265385977538863   0.185432667346937   1.0
H182   H   0.063873525255652   0.851009401879644   0.440061220408161   1.0
H183   H   0.377049757925121   0.683478408312418   0.443906122448979   1.0
H184   H   0.974213455620657   0.368232647636219   0.080397975510202   1.0
H185   H   0.686939612919339   0.022085574562098   0.487689816326530   1.0
H186   H   0.062244879470192   0.610458559849185   0.415244899999998   1.0
H187   H   0.651610970383594   0.659537242191270   0.564277571428569   1.0
H188   H   0.610398784795031   0.808083966483785   0.584906130612246   1.0
H189   H   0.486711325512829   0.181906555061410   0.554789795918367   1.0
H190   H   0.542880972398720   0.444260851451943   0.558012281632656   1.0
H191   H   0.623551609202480   0.348245540066813   0.581416306122449   1.0
H192   H   0.213162558899363   0.404389329069431   0.584302008163263   1.0
H193   H   0.374518929405418   0.451701860092626   0.553561230612246   1.0
H194   H   0.347061353487568   0.289825178458862   0.538185742857145   1.0
H195   H   0.096891564728978   0.968276393474156   0.549312281632652   1.0
H196   H   0.252093234865562   0.070487444181040   0.577869416326529   1.0
H197   H   0.172801492142824   0.156579834387991   0.595330608163266   1.0
H198   H   0.818373754460019   0.040296115679539   0.570138738775512   1.0
H199   H   0.001539091394115   0.235759858026015   0.553002026530613   1.0
H200   H   0.953079455534535   0.059448998437958   0.537838761224492   1.0
H201   H   0.424614480742612   0.957211818737484   0.122669375510206   1.0
H202   H   0.823625986002433   0.992114957999895   0.520918399999999   1.0
H203   H   0.711748966893119   0.003819174601844   0.538726495918368   1.0
H204   H   0.897041888171593   0.312728181435723   0.444608183673466   1.0
H205   H   0.866371100985710   0.016374298459880   0.477889781632655   1.0
H206   H   0.795786850278603   0.080909380137768   0.451967357142856   1.0
H207   H   0.058444994508854   0.089545781688784   0.390244932653061   1.0
H208   H   0.067629337249819   0.327624989573472   0.430224516326533   1.0
H209   H   0.135103216057523   0.183247794020119   0.445497940816324   1.0
H210   H   0.001820606738335   0.874973267065435   0.409840797959184   1.0
H211   H   0.776677463125388   0.958875584968112   0.217424471428572   1.0
H212   H   0.008144043191507   0.397654806025557   0.478955093877552   1.0
H213   H   0.211820182000522   0.173936858768514   0.373728538775509   1.0
H214   H   0.241962643758896   0.669940991548017   0.163336734693878   1.0
H215   H   0.339564283554964   0.775015326426683   0.153767332653061   1.0
H216   H   0.160954248694921   0.685301580775622   0.300718346938773   1.0
H217   H   0.229242450395354   0.850644701295352   0.293595918367345   1.0
H218   H   0.285844867703709   0.672299825472450   0.300144895918365   1.0
H219   H   0.181692421012151   0.195193267949698   0.208636732653062   1.0
H220   H   0.069617286286274   0.261050182709241   0.196434683673466   1.0
H221   H   0.067101136529438   0.099482297236506   0.219314304081635   1.0
H222   H   0.767595688331646   0.291963961360537   0.591851059183675   1.0
H223   H   0.082498791991370   0.948790807608106   0.289777561224490   1.0
H224   H   0.976003560461940   0.048509667385773   0.306542844897962   1.0
H225   H   0.428267724789556   0.356381718957323   0.275234689795916   1.0
H226   H   0.532728271451333   0.285761601478264   0.293148975510206   1.0
H227   H   0.616149962232079   0.772850243604722   0.350765306122447   1.0
H228   H   0.608623512766599   0.967194017292314   0.339130634693880   1.0
H229   H   0.546541500809241   0.809303266340706   0.321955077551017   1.0
H230   H   0.353113346531259   0.116712870050591   0.443493902040814   1.0
H231   H   0.438515709320590   0.075179963016019   0.471046914285715   1.0
H232   H   0.363632774471775   0.936165045445989   0.457581657142860   1.0
H233   H   0.822833772950425   0.600932245571059   0.415095893877549   1.0
H234   H   0.831893437903439   0.796426811697586   0.416646918367349   1.0
H235   H   0.759277025814157   0.705516579205380   0.390087751020410   1.0
H236   H   0.228054130817341   0.878745060788368   0.160544881632653   1.0
H237   H   0.879010696864178   0.566325231104280   0.502587767346938   1.0
H238   H   0.582772619507757   0.649623505473983   0.281465336734691   1.0
H239   H   0.456370740802171   0.414941192101999   0.309285689795921   1.0
H240   H   0.805866238104500   0.367115937979591   0.088665320408161   1.0
H241   H   0.228963729958004   0.144866809363869   0.139306126530613   1.0
H242   H   0.307866643182599   0.024181101615689   0.126838761224491   1.0
H243   H   0.024744711665740   0.895985911994174   0.023510212244901   1.0
H244   H   0.054182966927890   0.716193742898000   0.009489799999997   1.0
H245   H   0.288236339672586   0.309307402766642   0.047944906122446   1.0
H246   H   0.423140024320823   0.412844468561566   0.104532669387758   1.0
H247   H   0.459554425823065   0.573082589954161   0.086161244897958   1.0
H248   H   0.378010714396538   0.594721840739169   0.112051010204084   1.0
H249   H   0.296239485813430   0.205429543334020   0.109520426530615   1.0
H250   H   0.993763308359874   0.740659129787147   0.041546957142856   1.0
H251   H   0.837343792398130   0.220361653531143   0.069567348979589   1.0
H252   H   0.546365487697678   0.833757132770842   0.273106087755103   1.0
H253   H   0.812475664687170   0.178292013894747   0.104406122448978   1.0
H254   H   0.030723391587948   0.731280929184841   0.110648991836733   1.0
H255   H   0.005485609934141   0.816071917747344   0.139448983673468   1.0
H256   H   0.916635395742311   0.707362598869693   0.122959175510203   1.0
H257   H   0.952455714480529   0.584454923896601   0.251920428571431   1.0
H258   H   0.839852511077112   0.695899092629958   0.251216342857141   1.0
H259   H   0.958999369055277   0.767232544168600   0.243322453061225   1.0
H260   H   0.521541293575332   0.669872620871381   0.147818351020405   1.0
H261   H   0.594282236738295   0.518750692253100   0.144206106122446   1.0
H262   H   0.648808698454417   0.677871990037936   0.133342861224492   1.0
H263   H   0.372391616482439   0.458493335910148   0.036646940816326   1.0
H264   H   0.463523054203805   0.686532298535546   0.280622444897958   1.0
H265   H   0.833874109912024   0.674863725846350   0.530202048979589   1.0
H266   H   0.646189716664665   0.050397848967350   0.072367338775507   1.0
H267   H   0.401492392241487   0.930080043830159   0.514189818367349   1.0
H268   H   0.131875590112308   0.773397300178722   0.363799971428570   1.0
H269   H   0.015545829540464   0.703100803902416   0.372787787755101   1.0
H270   H   0.422736640766949   0.496176962454925   0.481340836734695   1.0
H271   H   0.306370084255803   0.416057901758627   0.477036767346938   1.0
H272   H   0.322824119151356   0.605045812911392   0.488963302040816   1.0
H273   H   0.397098277801860   0.503321732348859   0.375869361224488   1.0
H274   H   0.458967612751202   0.362922490898725   0.356526512244898   1.0
H275   H   0.517323338961539   0.542988085725888   0.367816302040815   1.0
H276   H   0.875841565899023   0.073666703434895   0.374940832653060   1.0
H277   H   0.761323741252070   0.997542757881661   0.373681593877549   1.0
H278   H   0.814419680135011   0.053449482958150   0.405022448979594   1.0
H279   H   0.949536188505540   0.461569959383262   0.329806114285716   1.0
H280   H   0.886991879878572   0.615677441733368   0.344936759183675   1.0
H281   H   0.933243612665812   0.623403385168942   0.309528583673469   1.0
H282   H   0.186658655089346   0.781282684032213   0.580353095918369   1.0
H283   H   0.809453446057823   0.916816166747878   0.276673453061221   1.0
H284   H   0.692441449451906   0.998986302162841   0.272100020408161   1.0
H285   H   0.935906528044178   0.057372820285856   0.174742873469391   1.0
H286   H   0.835561236006114   0.085499377143137   0.148748981632650   1.0
H287   H   0.848053926884504   0.927094604049458   0.172681614285715   1.0
H288   H   0.420220366302992   0.196162946466217   0.208375502040816   1.0
H289   H   0.360184930404984   0.124523034764664   0.178038773469389   1.0
H290   H   0.412694056216068   0.312215367175604   0.180193881632654   1.0
H291   H   0.108723975364036   0.578643348011759   0.368038800000001   1.0
H292   H   0.772298042120056   0.047954736788846   0.299714302040819   1.0
H293   H   0.855331042781224   0.762925100379547   0.497224457142856   1.0
H294   H   0.262994083233501   0.216475965656045   0.405255065306122   1.0
H295   H   0.057425418350242   0.958453943005296   0.325957163265308   1.0
H296   H   0.162692864162608   0.335716727524165   0.393708132653060   1.0
H297   H   0.368877728986320   0.922376924805477   0.548253040816327   1.0
H298   H   0.354257732520665   0.759039412504450   0.527828608163269   1.0
H299   H   0.549534339905719   0.807240773719045   0.631438742857142   1.0
H300   H   0.471731739703351   0.007972681812440   0.590951024489797   1.0
H301   H   0.487070907520931   0.160523660128455   0.618928559183672   1.0
H302   H   0.586462248694041   0.100710713183645   0.600444871428572   1.0
H303   H   0.187715034522967   0.490843981306547   0.522891842857142   1.0
H304   H   0.225706592437071   0.616532143562011   0.549802040816324   1.0
H305   H   0.109281548281579   0.526146063467131   0.548618395918368   1.0
H306   H   0.520660934588982   0.621261138152981   0.646048955102039   1.0
H307   H   0.126007026586606   0.867896970404161   0.608104083673467   1.0
H308   H   0.440173595260369   0.696013089338138   0.621671404081631   1.0
H309   H   0.873780303741093   0.368506073367207   0.581836699999997   1.0
H310   H   0.875555575769525   0.221876109599108   0.606099965306122   1.0
H311   H   0.479206978552355   0.107832658666688   0.093746924489793   1.0
H312   H   0.622011116687069   0.288167166760182   0.522587757142858   1.0
H313   H   0.558564625325864   0.137163690339179   0.506612271428573   1.0
H314   H   0.609349682389279   0.280126729607190   0.486161212244895   1.0
H315   H   0.040157060561967   0.217253089556927   0.492308169387755   1.0
H316   H   0.931849753729090   0.294963200622810   0.500238769387757   1.0
H317   H   0.066096261140842   0.759643307900959   0.584775497959185   1.0
O318   O   0.520184098535069   0.468851436445128   0.601138757142856   1.0
O319   O   0.011371808515278   0.049143235655947   0.578089812244897   1.0
O320   O   0.797041360000215   0.199310310799419   0.541497989795921   1.0
O321   O   0.781709740631911   0.208123313808187   0.485230581632656   1.0
O322   O   0.991129779850098   0.129793320002570   0.442693906122450   1.0
O323   O   0.176968104097298   0.243269225948218   0.556795938775508   1.0
O324   O   0.611066474109073   0.379559344152007   0.399599971428572   1.0
O325   O   0.830741635507614   0.353407583128487   0.296530587755100   1.0
O326   O   0.371760730443413   0.467153644407759   0.426787787755103   1.0
O327   O   0.784343269141679   0.289588057557168   0.353110177551024   1.0
O328   O   0.503539503807936   0.705972360926069   0.561579569387753   1.0
O329   O   0.751288565771901   0.160343594556416   0.239318381632650   1.0
O330   O   0.714829951923932   0.726232882831347   0.458669389795915   1.0
O331   O   0.153332515645793   0.968276393474156   0.412461261224493   1.0
O332   O   0.209810137794776   0.661087023108834   0.412591818367346   1.0
O333   O   0.658161630564805   0.732796479183634   0.512387722448977   1.0
O334   O   0.274320410324606   0.629739090660884   0.063238767346938   1.0
O335   O   0.538787541522893   0.844787590539866   0.437465279591834   1.0
O336   O   0.960400505019862   0.557311742481389   0.168520402040819   1.0
O337   O   0.466464682683807   0.902332921437988   0.110728557142856   1.0
O338   O   0.125493526636234   0.840730964578064   0.071269406122447   1.0
O339   O   0.112296497218772   0.166194939384837   0.098287738775511   1.0
O340   O   0.949198701666724   0.368996074611552   0.121267359183676   1.0
O341   O   0.805301256116245   0.690987753444404   0.200630616326528   1.0
O342   O   0.590929808298000   0.603951916270532   0.196546944897960   1.0
O343   O   0.121062755635862   0.225081509241662   0.264463232653064   1.0
O344   O   0.212751758939064   0.769785038034605   0.212710206122452   1.0
O345   O   0.155511171228099   0.566268301120871   0.256812271428572   1.0
O346   O   0.214248317865859   0.121261787674406   0.311085681632655   1.0
O347   O   0.434048289095188   0.124783960056938   0.328520406122450   1.0
O348   O   0.689683118447050   0.109619412349474   0.180422453061226   1.0
O349   O   0.487136672193152   0.974065144948113   0.380236724489798   1.0
O350   O   0.429705517314886   0.757956819815462   0.230742863265306   1.0
O351   O   0.378905627438620   0.261853595135292   0.579614289795920   1.0
O352   O   0.494810033994433   0.113421961481784   0.147085695918371   1.0


# Number_of_total_atoms: 352
# Number_of_atom_type: 3
# Name_of_each_atom: C H O
# Number_of_each_atom: 105 212 35
# Created_by: Lihua Chen (lihua.chen@mse.gatech.edu)
# Tool: VASP
# K-points: 1 2 1
# Pseudopotential: PBE-HSE06
# Material_class: MC_Pol
# Geometry_class: GC_PD
# Bandgap_(eV): 4.86
