#======================================================================

# Note: Disordered slab of polyproplyene oxide
# Common_name: Disordered slab-2

#----------------------------------------------------------------------

data_1
_audit_creation_method   'vasp2cif'
_cell_length_a    13.7186032
_cell_length_b    8.5055456
_cell_length_c    49.0
_cell_angle_alpha    90.0
_cell_angle_beta    90.0
_cell_angle_gamma    90.0

_symmetry_space_group_name_H-M    'P 1'
loop_
_atom_site_label
_atom_site_type_symbol
_atom_site_fract_x
_atom_site_fract_y
_atom_site_fract_z
_atom_site_occupancy
C1   C   0.199761722097186   0.540238500396732   0.047528559183675   1.0
C2   C   0.637284341018045   0.981068457266282   0.509014285714287   1.0
C3   C   0.304182039465943   0.478596293693379   0.052687742857145   1.0
C4   C   0.164182298092854   0.951299690874620   0.069655087755102   1.0
C5   C   0.145011352176148   0.776613683665396   0.070671432653064   1.0
C6   C   0.123099500392286   0.034517820937907   0.044204089795919   1.0
C7   C   0.092207033147517   0.217788874119961   0.128379587755099   1.0
C8   C   0.159743085214387   0.120634589273145   0.109091857142857   1.0
C9   C   0.148714236446466   0.283659933584978   0.152381624489799   1.0
C10   C   0.944516916999248   0.469931358665576   0.083420422448981   1.0
C11   C   0.969599711142607   0.323544511947595   0.098736744897963   1.0
C12   C   0.193609484965641   0.687154343161716   0.199589787755102   1.0
C13   C   0.880261082265285   0.443607380107394   0.058875493877551   1.0
C14   C   0.949816326781722   0.684873525338574   0.116338769387752   1.0
C15   C   0.811923221162921   0.882967848646885   0.110624508163262   1.0
C16   C   0.819642658663675   0.522132630739172   0.188744914285714   1.0
C17   C   0.863823410243398   0.671329420654686   0.175371442857141   1.0
C18   C   0.856315583207483   0.513162048064267   0.219271446938777   1.0
C19   C   0.563814747553891   0.608864221479223   0.171187771428571   1.0
C20   C   0.656586670572992   0.507471654728420   0.169265318367344   1.0
C21   C   0.511236632312539   0.620879970357223   0.143677536734692   1.0
C22   C   0.422677988091380   0.532702205488150   0.234799989795917   1.0
C23   C   0.514662702686813   0.572100066102756   0.217312248979589   1.0
C24   C   0.882936369207037   0.803866503284631   0.130587753061228   1.0
C25   C   0.159998213229173   0.493057458888941   0.020389791836735   1.0
C26   C   0.784704590041642   0.633965491878620   0.526744920408163   1.0
C27   C   0.158810031038726   0.708681557124329   0.171395906122449   1.0
C28   C   0.406838292399911   0.147646342640264   0.294230636734696   1.0
C29   C   0.124899844030772   0.624536443611568   0.245118355102043   1.0
C30   C   0.191459185873967   0.567808736455426   0.290248948979588   1.0
C31   C   0.007081821566210   0.139710320287975   0.252291855102044   1.0
C32   C   0.083663969521325   0.262880596395838   0.247177514285717   1.0
C33   C   0.013868197601923   0.030903684767736   0.226657128571432   1.0
C34   C   0.073743076117253   0.973732078986210   0.317771444897957   1.0
C35   C   0.164430195050763   0.491740682690598   0.263385693877552   1.0
C36   C   0.014677376192353   0.079931733009580   0.298669387755105   1.0
C37   C   0.017039139961419   0.820302862170301   0.322695908163268   1.0
C38   C   0.343974742268223   0.994733212646580   0.303214248979593   1.0
C39   C   0.238380843320840   0.045417780136290   0.311940795918367   1.0
C40   C   0.413989071423828   0.836339352527837   0.405612244897959   1.0
C41   C   0.439589352653627   0.727069525087259   0.360473477551018   1.0
C42   C   0.362985380319188   0.809721506871938   0.342144869387752   1.0
C43   C   0.536705668402156   0.681217052084229   0.345659216326531   1.0
C44   C   0.466239201378755   0.889422366979019   0.431322448979593   1.0
C45   C   0.405613677928962   0.895924089807949   0.457116340816327   1.0
C46   C   0.712875316635731   0.712373230942411   0.438912216326528   1.0
C47   C   0.633377215837832   0.818762596487637   0.426328542857142   1.0
C48   C   0.811114049861871   0.737356895717539   0.425808187755102   1.0
C49   C   0.693638606006189   0.705201462913799   0.513473432653065   1.0
C50   C   0.675057858660132   0.647627225700845   0.484671457142859   1.0
C51   C   0.446579831101175   0.550067381920805   0.263269387755102   1.0
C52   C   0.642868211247631   0.130218936219684   0.525291832653060   1.0
C53   C   0.298080820647982   0.612849891722405   0.201269383673470   1.0
C54   C   0.567248041695670   0.252623723515164   0.516557110204083   1.0
C55   C   0.356694666990585   0.147140766607613   0.592661255102044   1.0
C56   C   0.712306665448274   0.095810761393132   0.569171440816326   1.0
C57   C   0.646447227222083   0.264384285941631   0.607653093877552   1.0
C58   C   0.573691977620577   0.696795088606663   0.606510240816327   1.0
C59   C   0.640746836383457   0.830014114556036   0.597742820408165   1.0
C60   C   0.594772826434692   0.664804254297337   0.635681620408164   1.0
C61   C   0.351271374333507   0.681816696156446   0.563879597959186   1.0
C62   C   0.459314487644050   0.711902984800879   0.569508142857146   1.0
C63   C   0.318367091483481   0.794778303228426   0.541493863265309   1.0
C64   C   0.318760695695318   0.253840611941463   0.570310244897961   1.0
C65   C   0.339396921984012   0.423032544790544   0.577281640816324   1.0
C66   C   0.054076336284730   0.205238180135090   0.549277559183672   1.0
C67   C   0.125125916609356   0.948783638288880   0.388057163265309   1.0
C68   C   0.162010174621862   0.236056873294522   0.546142889795917   1.0
C69   C   0.009829827281543   0.334410434528742   0.568867355102043   1.0
C70   C   0.886712249247068   0.123139989984885   0.488867314285713   1.0
C71   C   0.915957165376717   0.175289460560883   0.519616340816327   1.0
C72   C   0.874823196285753   0.265441278687639   0.469932634693876   1.0
C73   C   0.067146209170915   0.782163027848561   0.483467336734691   1.0
C74   C   0.969803813554428   0.873526902260096   0.487928587755100   1.0
C75   C   0.067532575036502   0.619762993217037   0.498549014285715   1.0
C76   C   0.095961081518851   0.828850156302728   0.409620402040815   1.0
C77   C   0.172827551423019   0.411816356613265   0.393767377551022   1.0
C78   C   0.099977488961848   0.545870026256750   0.404002053061227   1.0
C79   C   0.195081989105127   0.420446079320300   0.362599977551021   1.0
C80   C   0.109577635425744   0.878182735273327   0.438855073469391   1.0
C81   C   0.687952961566815   0.095903665486198   0.600216302040813   1.0
C82   C   0.363772588742855   0.389842434093822   0.445897938775509   1.0
C83   C   0.264790303141069   0.353336827680991   0.433077520408162   1.0
C84   C   0.357051846211284   0.359579872218894   0.477312283673470   1.0
C85   C   0.561088573507249   0.270489761409309   0.396579587755099   1.0
C86   C   0.504705391580977   0.379096492058075   0.416224499999998   1.0
C87   C   0.494806461054289   0.222712673482107   0.372030608163264   1.0
C88   C   0.808519120955403   0.342637984328718   0.367359161224492   1.0
C89   C   0.913952573538971   0.287938365764567   0.375751028571429   1.0
C90   C   0.746158603085775   0.378485185006824   0.295473448979592   1.0
C91   C   0.717081087380677   0.374382014952694   0.326095893877550   1.0
C92   C   0.835744990422931   0.478890278361447   0.293426514285713   1.0
C93   C   0.735450501258029   0.262031703174927   0.386391853061227   1.0
C94   C   0.711111252200951   0.104595618181158   0.290967357142854   1.0
C95   C   0.643086775773206   0.834940277082282   0.279159157142857   1.0
C96   C   0.696678164727444   0.094284709966168   0.201214306122452   1.0
C97   C   0.729939758006850   0.978755389895269   0.222593893877551   1.0
C98   C   0.502358228423724   0.076605632447610   0.093881646938776   1.0
C99   C   0.760190439796375   0.093700373553929   0.177208181632651   1.0
C100   C   0.429194773998567   0.066907265772578   0.191189785714286   1.0
C101   C   0.523978519912291   0.103421113867171   0.206683683673468   1.0
C102   C   0.337764109978778   0.087972357705070   0.208471414285711   1.0
C103   C   0.483362037907767   0.181722898528697   0.118659195918369   1.0
C104   C   0.460757659351209   0.073281953834922   0.144330628571431   1.0
C105   C   0.713895821405494   0.968629549173187   0.271746967346935   1.0
H106   H   0.180816710260998   0.191208580434861   0.165665295918366   1.0
H107   H   0.203610597906938   0.362860061557953   0.142679604081636   1.0
H108   H   0.044600218482884   0.042804614438843   0.042236718367349   1.0
H109   H   0.143517016367966   0.164973837774731   0.044420397959186   1.0
H110   H   0.203843755754960   0.516900702995464   0.002330624489794   1.0
H111   H   0.319759376085749   0.451813837786020   0.073814275510202   1.0
H112   H   0.316034521648675   0.379896041001764   0.039583673469387   1.0
H113   H   0.365580447723716   0.540214951054992   0.041626522448979   1.0
H114   H   0.104496921377532   0.336794761290797   0.167644889795916   1.0
H115   H   0.147504222587322   0.967418045469067   0.026422461224492   1.0
H116   H   0.919310101483219   0.399483179538770   0.041289777551022   1.0
H117   H   0.475380117416037   0.669753966165324   0.266604053061222   1.0
H118   H   0.825904178058011   0.356769940778399   0.064914275510205   1.0
H119   H   0.763981058946293   0.956108341832888   0.123842863265310   1.0
H120   H   0.776927041668500   0.786818755048472   0.098206112244895   1.0
H121   H   0.852678186653868   0.948160562445281   0.094606128571428   1.0
H122   H   0.924966828984452   0.566832926038281   0.220312236734692   1.0
H123   H   0.858866856065930   0.402716387764705   0.229430608163263   1.0
H124   H   0.809386410418227   0.592133995495836   0.232002024489795   1.0
H125   H   0.471866734945728   0.524448766696402   0.137204073469391   1.0
H126   H   0.557567959980062   0.651365986445363   0.126359200000003   1.0
H127   H   0.453118587175112   0.713243204527643   0.144824475510205   1.0
H128   H   0.145572633808669   0.364364985592459   0.019475510204082   1.0
H129   H   0.836123994022948   0.547363181498902   0.050936718367346   1.0
H130   H   0.393921496322598   0.505978499486261   0.279336734693878   1.0
H131   H   0.417189215006964   0.237284401837783   0.310959173469385   1.0
H132   H   0.846897714776091   0.645287540401874   0.513112281632651   1.0
H133   H   0.108994522124526   0.811649590121533   0.172353044897960   1.0
H134   H   0.121947743192983   0.607053649797606   0.162832648979595   1.0
H135   H   0.202925294901746   0.486685133990697   0.306973438775508   1.0
H136   H   0.132546424259871   0.638045230161367   0.299473432653059   1.0
H137   H   0.253105352591582   0.646745483323258   0.289093873469390   1.0
H138   H   0.085653953457886   0.967537967229283   0.224004085714284   1.0
H139   H   0.002839064548496   0.105861827370603   0.207942846938778   1.0
H140   H   0.961967593027254   0.940012972242485   0.228922434693878   1.0
H141   H   0.456004930589437   0.978725962035874   0.090924477551020   1.0
H142   H   0.944655400485672   0.858666009620826   0.331499995918371   1.0
H143   H   0.057772135285610   0.737733179632826   0.335893904081630   1.0
H144   H   0.369582254554892   0.201580589962390   0.276744920408163   1.0
H145   H   0.483157942785311   0.114388052895748   0.288183640816328   1.0
H146   H   0.582708872285188   0.643359457152286   0.363136759183675   1.0
H147   H   0.578174985045123   0.786748224593609   0.338432624489798   1.0
H148   H   0.536290239811002   0.595237923361438   0.329030640816327   1.0
H149   H   0.357117465136682   0.790839625855398   0.458638795918368   1.0
H150   H   0.356461363355123   0.998786380029522   0.458665342857145   1.0
H151   H   0.453971421813556   0.879264288466103   0.475093840816328   1.0
H152   H   0.853494589011802   0.653576285570672   0.436485679591840   1.0
H153   H   0.848297230435236   0.849424991619586   0.431851057142857   1.0
H154   H   0.809750959193863   0.703390879475151   0.404042846938772   1.0
H155   H   0.213079491941279   0.751606481305565   0.158051004081635   1.0
H156   H   0.512694543129584   0.480430414716721   0.268214322448976   1.0
H157   H   0.788130660415924   0.509070540989164   0.531506130612243   1.0
H158   H   0.348384753923050   0.029316508514164   0.588024528571431   1.0
H159   H   0.584348915347299   0.281519047996170   0.494948951020412   1.0
H160   H   0.202677543731276   0.985285200281567   0.387867363265308   1.0
H161   H   0.565163376108146   0.358815641409294   0.529036697959185   1.0
H162   H   0.493778448231524   0.201562989680518   0.515579612244899   1.0
H163   H   0.579691014023936   0.291337277646242   0.597616312244895   1.0
H164   H   0.699557554081018   0.367045530859301   0.603273430612248   1.0
H165   H   0.555322840739358   0.742212527788929   0.650555126530612   1.0
H166   H   0.668286083236232   0.683780097540129   0.637691810204082   1.0
H167   H   0.582030946124313   0.541261291927000   0.644379595918366   1.0
H168   H   0.355302382388317   0.791721474046298   0.522302044897963   1.0
H169   H   0.316515583743978   0.914464887472946   0.549483710204079   1.0
H170   H   0.240728013767466   0.762564014705887   0.536442893877549   1.0
H171   H   0.618397724339751   0.256712879183198   0.629677522448979   1.0
H172   H   0.435368842798809   0.170303313640453   0.595259218367346   1.0
H173   H   0.324956734662315   0.171045241354065   0.613138783673470   1.0
H174   H   0.141067802004798   0.582951739157096   0.497246957142856   1.0
H175   H   0.052735077285419   0.631708211640181   0.520351020408164   1.0
H176   H   0.015311507807148   0.535053553766147   0.490316353061225   1.0
H177   H   0.932955980533059   0.314864339802021   0.461379616326532   1.0
H178   H   0.830853778174735   0.360732061679855   0.477642838775509   1.0
H179   H   0.832573902275996   0.225289839137425   0.452244895918369   1.0
H180   H   0.040940705975082   0.449297773443249   0.564663244897957   1.0
H181   H   0.932095922127118   0.347364336039775   0.568506126530615   1.0
H182   H   0.548835248766437   0.260421048121827   0.120436726530613   1.0
H183   H   0.110095253720871   0.889481234454848   0.368559157142855   1.0
H184   H   0.993683693686833   0.749490144406494   0.306440781632652   1.0
H185   H   0.658882953914727   0.795624727471925   0.299634661224488   1.0
H186   H   0.255343240775417   0.338781700259183   0.359473481632655   1.0
H187   H   0.228401700546307   0.537052273283912   0.355989806122452   1.0
H188   H   0.132320490179353   0.384493006539167   0.351357128571429   1.0
H189   H   0.348552431343741   0.233041181978969   0.480534689795917   1.0
H190   H   0.290754994648438   0.417330382662343   0.485114273469385   1.0
H191   H   0.424398389188774   0.414191242475965   0.487714261224490   1.0
H192   H   0.534628226582136   0.140218247727695   0.358718406122449   1.0
H193   H   0.477428635008557   0.330730423689694   0.361069426530612   1.0
H194   H   0.431140977967786   0.162187455675976   0.378802008163262   1.0
H195   H   0.939530884602014   0.336536082999778   0.394951022448979   1.0
H196   H   0.961406457182171   0.329783982346761   0.359681655102044   1.0
H197   H   0.922444757349638   0.156184336957757   0.377518402040813   1.0
H198   H   0.819875955009763   0.603985145879413   0.298408197959183   1.0
H199   H   0.870019580419090   0.495173795788013   0.273999973469387   1.0
H200   H   0.894037936748546   0.435847736798920   0.306267330612243   1.0
H201   H   0.801754583877752   0.691010744801602   0.546897967346936   1.0
H202   H   0.664276906850105   0.746374565318888   0.264136722448981   1.0
H203   H   0.569230940362793   0.873268235726115   0.277940789795920   1.0
H204   H   0.832668729714406   0.130639838083994   0.182491848979595   1.0
H205   H   0.728270236724974   0.165984978083003   0.160575518367345   1.0
H206   H   0.761998437275302   0.975824878300578   0.169581628571429   1.0
H207   H   0.352299110160139   0.035969826556453   0.228520412244897   1.0
H208   H   0.273799966748804   0.056558735044582   0.197471424489798   1.0
H209   H   0.323156252525770   0.207802448322660   0.213438773469385   1.0
H210   H   0.079990140687208   0.056778615119057   0.389318348979593   1.0
H211   H   0.031515752274252   0.290169851067518   0.589759204081631   1.0
H212   H   0.706278442400027   0.851552991497691   0.220006126530613   1.0
H213   H   0.070776374667645   0.514984400295262   0.423271412244901   1.0
H214   H   0.087578325758415   0.555640157875352   0.016816314285713   1.0
H215   H   0.150427267988917   0.483499012691205   0.063146940816324   1.0
H216   H   0.244846472416377   0.970969234472157   0.071846942857142   1.0
H217   H   0.071228242828688   0.761270776092246   0.067712238775513   1.0
H218   H   0.158037423226879   0.721872927234671   0.091457134693876   1.0
H219   H   0.037719022298127   0.147876757018388   0.137393873469385   1.0
H220   H   0.198128910091952   0.036115590280296   0.121795926530609   1.0
H221   H   0.217387452390199   0.195160049462316   0.101644906122452   1.0
H222   H   0.574872928754147   0.021500984016825   0.095361242857145   1.0
H223   H   0.979338195305480   0.231609269133777   0.083551018367345   1.0
H224   H   0.907938812604478   0.279064096722969   0.112238787755103   1.0
H225   H   0.918479237011532   0.902025979379850   0.140328583673473   1.0
H226   H   0.991846779269771   0.623537083852682   0.131136720408165   1.0
H227   H   0.837406719366300   0.418188681511509   0.178104089795916   1.0
H228   H   0.941848861114373   0.650966270758694   0.173114271428574   1.0
H229   H   0.863699665866861   0.770264896351861   0.189510189795918   1.0
H230   H   0.594109362387563   0.728727278823833   0.176465287755100   1.0
H231   H   0.696999050165694   0.522026782150228   0.151357144897958   1.0
H232   H   0.639937665082407   0.378261836606932   0.168320404081634   1.0
H233   H   0.405256505997635   0.410487799865535   0.230689808163263   1.0
H234   H   0.581054097402571   0.517135831944749   0.224108171428568   1.0
H235   H   0.529081058339820   0.696418910504697   0.218699981632653   1.0
H236   H   0.198726616715611   0.798881485039594   0.208985697959186   1.0
H237   H   0.345374257927368   0.681804915607060   0.187865316326530   1.0
H238   H   0.292861630402719   0.491928818769722   0.196397975510202   1.0
H239   H   0.001009381188311   0.743858500976117   0.103853069387753   1.0
H240   H   0.293138590086201   0.849131006951509   0.351779626530615   1.0
H241   H   0.211074900103533   0.152511392096940   0.302095920408164   1.0
H242   H   0.344127819077087   0.916099091867778   0.285600000000002   1.0
H243   H   0.934319071201067   0.080101034318126   0.303744881632653   1.0
H244   H   0.035678005469244   0.200339047033033   0.305057138775510   1.0
H245   H   0.046961982251958   0.640925692056719   0.250502061224488   1.0
H246   H   0.154779030273289   0.198574327789153   0.245816289795918   1.0
H247   H   0.068939467539963   0.325679577803925   0.228993863265309   1.0
H248   H   0.934880214335521   0.189519094459975   0.254573432653061   1.0
H249   H   0.236106530145868   0.078854788574645   0.333334708163264   1.0
H250   H   0.077198201927729   0.038176598571169   0.337685722448981   1.0
H251   H   0.405620908985839   0.622749303701340   0.370091808163266   1.0
H252   H   0.710396901048938   0.191125046698943   0.520810185714282   1.0
H253   H   0.345461708521462   0.719815457811428   0.325975534693875   1.0
H254   H   0.499405974509123   0.007541279891555   0.429232616326530   1.0
H255   H   0.352955219231063   0.915852194126145   0.399191797959183   1.0
H256   H   0.382178296402657   0.722719351478169   0.410126510204080   1.0
H257   H   0.692793002424622   0.592251612877135   0.434079618367349   1.0
H258   H   0.627910412920173   0.809474609130305   0.404512212244896   1.0
H259   H   0.654983067080764   0.939965873559011   0.427618379591834   1.0
H260   H   0.631190491755021   0.677466628360676   0.527691824489793   1.0
H261   H   0.595100950219191   0.675091613170586   0.481708138775510   1.0
H262   H   0.686647989060575   0.523414088803428   0.480989806122452   1.0
H263   H   0.162010174621862   0.737333346375806   0.246928546938776   1.0
H264   H   0.234881922964284   0.438892797188693   0.255693865306121   1.0
H265   H   0.638654939739055   0.999856258486226   0.487173432653059   1.0
H266   H   0.008882026706622   0.527787705940931   0.076355097959187   1.0
H267   H   0.752172364020268   0.074153150151822   0.612348985714284   1.0
H268   H   0.750306255668946   0.986341017324037   0.561891828571426   1.0
H269   H   0.766044038652566   0.189375576329873   0.564744910204084   1.0
H270   H   0.600750169667421   0.591028904718350   0.596214293877551   1.0
H271   H   0.633552401311526   0.826428171756554   0.575306093877550   1.0
H272   H   0.720507157754952   0.804524897262326   0.599702018367346   1.0
H273   H   0.308446343866848   0.713466670497894   0.581659199999997   1.0
H274   H   0.480147577998316   0.828450440616059   0.562087779591835   1.0
H275   H   0.508481271621008   0.641019760096285   0.558522438775512   1.0
H276   H   0.343019717925799   0.230471211629272   0.549081608163263   1.0
H277   H   0.414710799420163   0.449050875701616   0.585110177551023   1.0
H278   H   0.295070324652293   0.450449962904202   0.594761206122449   1.0
H279   H   0.044184644104291   0.085796142225135   0.558120416326531   1.0
H280   H   0.174598839625304   0.359909069207738   0.538436734693875   1.0
H281   H   0.195956648122895   0.161707792149159   0.530330579591833   1.0
H282   H   0.374539085728493   0.277599193636682   0.134818369387752   1.0
H283   H   0.910220356836327   0.082037418034652   0.533383661224491   1.0
H284   H   0.871433558191988   0.277474627847503   0.526087781632654   1.0
H285   H   0.128712287560006   0.859618282453276   0.489477587755104   1.0
H286   H   0.955822579663213   0.873562232151222   0.510120391836736   1.0
H287   H   0.910278744704854   0.799728015096413   0.478110177551024   1.0
H288   H   0.021835524771212   0.795742344853224   0.405918355102038   1.0
H289   H   0.075179155265602   0.992776818455951   0.440206099999997   1.0
H290   H   0.186086926109212   0.896359017815392   0.444914291836731   1.0
H291   H   0.135957894022333   0.293308979496857   0.398187755102043   1.0
H292   H   0.040795144508593   0.559390710926294   0.388179622448980   1.0
H293   H   0.812280261885554   0.075970787811663   0.488016322448978   1.0
H294   H   0.369800950289168   0.517147600737097   0.443671402040813   1.0
H295   H   0.568239636816671   0.919120720486177   0.511567330612245   1.0
H296   H   0.213166935246001   0.421057374614513   0.446710236734695   1.0
H297   H   0.240684357719452   0.226412659524158   0.435018344897962   1.0
H298   H   0.575018643297447   0.160466237462771   0.405438795918364   1.0
H299   H   0.470190259603108   0.462830109334789   0.405873436734694   1.0
H300   H   0.806091592473493   0.468097237642226   0.368759155102040   1.0
H301   H   0.757683107271447   0.244117567249305   0.407151048979593   1.0
H302   H   0.726812610193434   0.138627544363530   0.379416330612244   1.0
H303   H   0.687019768893087   0.433084892284867   0.284302069387756   1.0
H304   H   0.654625742072632   0.311561729796615   0.334620418367344   1.0
H305   H   0.706766728262828   0.496043769373245   0.332991853061223   1.0
H306   H   0.552800492108410   0.445970508934785   0.430575546938776   1.0
H307   H   0.738679692987986   0.072403679782752   0.310616318367344   1.0
H308   H   0.788356725705135   0.923964572008174   0.273126563265308   1.0
H309   H   0.401611732599719   0.999009728429414   0.138016330612245   1.0
H310   H   0.529890236930243   0.000314735835403   0.146893871428574   1.0
H311   H   0.494558425598313   0.144794132900778   0.075063277551017   1.0
H312   H   0.523810842491606   0.058007213552536   0.227157126530614   1.0
H313   H   0.530290933700890   0.225092297430045   0.208442844897959   1.0
H314   H   0.421526369390143   0.936932605475654   0.185771436734697   1.0
H315   H   0.809160622125148   0.991013274915602   0.223108175510205   1.0
H316   H   0.696969856231426   0.214972993619597   0.209197959183676   1.0
H317   H   0.637678083727941   0.144633014488804   0.293822463265307   1.0
O318   O   0.399315595045422   0.273250254516299   0.116314285714289   1.0
O319   O   0.105065572564996   0.024490257274032   0.090463248979589   1.0
O320   O   0.057159828050132   0.349539317030995   0.113720408163268   1.0
O321   O   0.893243497268003   0.576826417813805   0.100620424489797   1.0
O322   O   0.719982439611634   0.546011192979790   0.191744902040817   1.0
O323   O   0.204164502695143   0.709551530709561   0.049575493877548   1.0
O324   O   0.499092604413256   0.537640136806743   0.189024477551023   1.0
O325   O   0.035014672630808   0.028241915486291   0.271485697959186   1.0
O326   O   0.124469814827798   0.596296033025794   0.215573485714287   1.0
O327   O   0.094998971906996   0.377979620731210   0.268571426530613   1.0
O328   O   0.167783269655324   0.927844393662411   0.307277524489798   1.0
O329   O   0.402384486199004   0.940436249027925   0.325700020408163   1.0
O330   O   0.607645966463991   0.047671580292274   0.191151016326529   1.0
O331   O   0.476043581463159   0.834082084046436   0.381444891836736   1.0
O332   O   0.338558687957388   0.627181776557634   0.228128589795915   1.0
O333   O   0.542967195085865   0.783820675771814   0.439383681632656   1.0
O334   O   0.475205208938476   0.702203395394179   0.598600036734695   1.0
O335   O   0.708625612846646   0.871363584247902   0.516469371428570   1.0
O336   O   0.728029716611381   0.745234156407321   0.466793840816330   1.0
O337   O   0.612755728659025   0.985712509730121   0.604769414285713   1.0
O338   O   0.327945406278680   0.520380808963040   0.554755075510201   1.0
O339   O   0.215893116582016   0.230129011359367   0.571357106122448   1.0
O340   O   0.013751545784196   0.225383918934021   0.522016330612246   1.0
O341   O   0.962011249075267   0.025937548321416   0.476085740816323   1.0
O342   O   0.072584095150447   0.758825242204331   0.454922422448981   1.0
O343   O   0.643961573289033   0.344566161634596   0.385740787755104   1.0
O344   O   0.264666289057765   0.424466950127219   0.405363277551018   1.0
O345   O   0.439691403859541   0.298683073311608   0.433710214285718   1.0
O346   O   0.792584466616837   0.287210570007410   0.339514285714287   1.0
O347   O   0.773850780959975   0.232608617135625   0.283110171428568   1.0
O348   O   0.625942246073564   0.098485475170456   0.552936710204079   1.0
O349   O   0.682879340077420   0.020028450614618   0.246779616326528   1.0
O350   O   0.154363594392755   0.685249703440540   0.404763281632654   1.0
O351   O   0.825867753066873   0.706929735348197   0.149302034693875   1.0
O352   O   0.425834329839063   0.160897697144790   0.167138781632652   1.0


# Number_of_total_atoms: 352
# Number_of_atom_type: 3
# Name_of_each_atom: C H O
# Number_of_each_atom: 105 212 35
# Created_by: Lihua Chen (lihua.chen@mse.gatech.edu)
# Tool: VASP
# K-points: 1 2 1
# Pseudopotential: PBE-HSE06
# Material_class: MC_Pol
# Geometry_class: GC_PD
# Bandgap_(eV): 4.79
