#======================================================================

# Note: Disordered slab of polyproplyene oxide
# Common_name: Disordered slab-3

#----------------------------------------------------------------------

data_1
_audit_creation_method   'vasp2cif'
_cell_length_a    13.9702188
_cell_length_b    8.7524109
_cell_length_c    49.0
_cell_angle_alpha    90.0
_cell_angle_beta    90.0
_cell_angle_gamma    90.0

_symmetry_space_group_name_H-M    'P 1'
loop_
_atom_site_label
_atom_site_type_symbol
_atom_site_fract_x
_atom_site_fract_y
_atom_site_fract_z
_atom_site_occupancy
C1   C   0.227810318904957   0.803259259685809   0.076967357142856   1.0
C2   C   0.569644435346994   0.798552019535556   0.502728597959184   1.0
C3   C   0.314258413762282   0.703481083137902   0.084283673469386   1.0
C4   C   0.283779277673162   0.213332717274504   0.076434700000000   1.0
C5   C   0.320600490523454   0.042260984342043   0.079553061224488   1.0
C6   C   0.270135998156306   0.267907417372278   0.047173481632655   1.0
C7   C   0.096910364782545   0.113112262588132   0.124136748979595   1.0
C8   C   0.177560454529171   0.223185979533938   0.115034687755099   1.0
C9   C   0.102801482250229   0.071112474849642   0.155348991836732   1.0
C10   C   0.862531866716360   0.193784949013306   0.091026540816330   1.0
C11   C   0.969945996837218   0.138224257729945   0.090232655102042   1.0
C12   C   0.221339360840936   0.647862099344536   0.182840816326532   1.0
C13   C   0.800077483396322   0.095006439882752   0.108308169387755   1.0
C14   C   0.901271331555670   0.460279509957651   0.088075520408161   1.0
C15   C   0.742984626697471   0.592768753578511   0.076891840816323   1.0
C16   C   0.872975561413540   0.698179675270957   0.164214271428570   1.0
C17   C   0.899739737791364   0.705629039879746   0.133138773469390   1.0
C18   C   0.941048961953264   0.792347991797321   0.182993869387758   1.0
C19   C   0.615828586736235   0.761876410532786   0.171422453061226   1.0
C20   C   0.706013222928192   0.668439343952649   0.173812244897959   1.0
C21   C   0.590481861314871   0.783230549653467   0.141161236734696   1.0
C22   C   0.429632490795349   0.625696755164910   0.219865293877554   1.0
C23   C   0.529802639884210   0.683840814649137   0.211528583673470   1.0
C24   C   0.840076842604638   0.601931965968369   0.091989789795917   1.0
C25   C   0.157303148322917   0.718334144938282   0.057361214285713   1.0
C26   C   0.779283485524218   0.558115455936836   0.481710240816327   1.0
C27   C   0.180559741841698   0.548072485947841   0.159175522448983   1.0
C28   C   0.381909523135029   0.255217119662426   0.303973453061225   1.0
C29   C   0.156701869264928   0.668005132163074   0.228161208163264   1.0
C30   C   0.128749479571503   0.690947370855270   0.279789828571431   1.0
C31   C   0.004721465063952   0.226110933617157   0.250716306122449   1.0
C32   C   0.071685283841077   0.345259818640372   0.240089806122448   1.0
C33   C   0.986073152984545   0.105637796324210   0.228940808163266   1.0
C34   C   0.054835211313943   0.093843331784157   0.320602028571429   1.0
C35   C   0.149193010491722   0.580223593021664   0.256575526530611   1.0
C36   C   0.016782765063063   0.202314004704689   0.298471412244901   1.0
C37   C   0.001629072552532   0.938227865878645   0.324902048979595   1.0
C38   C   0.315253444706251   0.111549333224289   0.306110228571427   1.0
C39   C   0.222642124975167   0.167034616713437   0.320702067346936   1.0
C40   C   0.345660906900044   0.815335989310100   0.386938759183671   1.0
C41   C   0.402446037566712   0.766332382772383   0.342269353061226   1.0
C42   C   0.337550776226926   0.863265686029436   0.324563240816325   1.0
C43   C   0.498278495108465   0.724903751947934   0.329442861224493   1.0
C44   C   0.389003191560604   0.885728056940287   0.413928595918364   1.0
C45   C   0.319354926638660   0.881363510938456   0.437730595918367   1.0
C46   C   0.647123629874713   0.801465536769989   0.415630573469386   1.0
C47   C   0.559959569137170   0.901438002642223   0.414532642857139   1.0
C48   C   0.728024252562172   0.882094749459263   0.401520397959182   1.0
C49   C   0.671081844473328   0.593557084939874   0.483169400000001   1.0
C50   C   0.635828266340397   0.628324682516904   0.452746955102043   1.0
C51   C   0.415710024527321   0.631032485003644   0.251753048979594   1.0
C52   C   0.570245714404990   0.933074862835795   0.523395928571432   1.0
C53   C   0.328488763540342   0.679819042773687   0.182263277551023   1.0
C54   C   0.471092170725342   0.026288231051858   0.519283683673471   1.0
C55   C   0.384565157991659   0.982912685235107   0.636767328571430   1.0
C56   C   0.623723817410792   0.936114231108597   0.570281673469388   1.0
C57   C   0.764473295149820   0.939347545943029   0.602732677551018   1.0
C58   C   0.667567024791339   0.438011416945699   0.582630624489795   1.0
C59   C   0.702162266778529   0.595819341617066   0.571975473469386   1.0
C60   C   0.739648930910086   0.360764038169187   0.603948944897958   1.0
C61   C   0.406461779968687   0.490054174673176   0.596097985714287   1.0
C62   C   0.500382957495269   0.520959967727293   0.580628610204080   1.0
C63   C   0.325031423273053   0.580006544253997   0.582746934693880   1.0
C64   C   0.348438336556335   0.084870958240778   0.614079612244900   1.0
C65   C   0.390849891341716   0.247781488412521   0.616797934693878   1.0
C66   C   0.096573956307687   0.083756990888077   0.589908134693879   1.0
C67   C   0.985450578626583   0.897987524785883   0.408504095918367   1.0
C68   C   0.203315269478814   0.089160062172127   0.585924499999997   1.0
C69   C   0.059187226187177   0.236477185960268   0.601146932653059   1.0
C70   C   0.932502202470872   0.989802089844751   0.530146930612247   1.0
C71   C   0.968564593991900   0.014755431557724   0.559269418367350   1.0
C72   C   0.906639944680038   0.137135403457805   0.518408171428568   1.0
C73   C   0.119880649256544   0.755112525624227   0.495800018367348   1.0
C74   C   0.040425873644871   0.786178263180034   0.516571434693880   1.0
C75   C   0.190838779132079   0.627330624982427   0.505128587755102   1.0
C76   C   0.996839061675971   0.774718586395437   0.428457142857141   1.0
C77   C   0.108284510189634   0.494121591114968   0.381687787755105   1.0
C78   C   0.032065346034521   0.562468450835645   0.400220442857140   1.0
C79   C   0.125592778833216   0.570466338594777   0.353369420408164   1.0
C80   C   0.024391837012601   0.825161796277186   0.457265269387754   1.0
C81   C   0.712820589467071   0.851520305108160   0.580961189795921   1.0
C82   C   0.314494609060809   0.393269390494453   0.426208183673467   1.0
C83   C   0.212312981096616   0.398433716131862   0.417548977551021   1.0
C84   C   0.330127936149431   0.299877979906086   0.451093869387755   1.0
C85   C   0.536338035020613   0.289763098302437   0.389781640816324   1.0
C86   C   0.456260413043779   0.404466362519614   0.399373502040817   1.0
C87   C   0.520805064270000   0.233444901449957   0.361163236734697   1.0
C88   C   0.788989639875936   0.350778275274990   0.372361240816325   1.0
C89   C   0.879761360645261   0.260162111447485   0.375253093877554   1.0
C90   C   0.768904227899419   0.454738179625458   0.301169416326530   1.0
C91   C   0.811623523033155   0.453984170235884   0.329357146938776   1.0
C92   C   0.824407882573752   0.568775353085854   0.283940840816328   1.0
C93   C   0.710658776511075   0.286446309324894   0.390077553061225   1.0
C94   C   0.724316379354057   0.181726522917245   0.297730581632656   1.0
C95   C   0.638390917685555   0.949676208643268   0.281640812244895   1.0
C96   C   0.691331921014722   0.224505615932635   0.202106126530609   1.0
C97   C   0.733800819211218   0.140479647727688   0.228057161224491   1.0
C98   C   0.527612158801695   0.346870814760308   0.103797951020411   1.0
C99   C   0.764108211390358   0.232504566256139   0.177985718367346   1.0
C100   C   0.445809753530845   0.121436906030084   0.191189785714286   1.0
C101   C   0.529552242946977   0.154865375436152   0.208442844897959   1.0
C102   C   0.347271554544299   0.098916242609221   0.207073483673469   1.0
C103   C   0.488393202545979   0.368373461533899   0.133246946938776   1.0
C104   C   0.463561744644970   0.221109934406762   0.146999981632653   1.0
C105   C   0.711811371200568   0.070372073139296   0.273473467346939   1.0
H106   H   0.173308652832269   0.053617855167197   0.162146938775507   1.0
H107   H   0.065837179300296   0.158809443007300   0.167320408163263   1.0
H108   H   0.242348265869680   0.379821701469709   0.050828583673471   1.0
H109   H   0.333714157719562   0.270057659198791   0.034412228571426   1.0
H110   H   0.120653679382599   0.611826302624799   0.067377557142855   1.0
H111   H   0.357156839948708   0.720973406310257   0.102242838775510   1.0
H112   H   0.279691983063287   0.594939584017929   0.089834681632652   1.0
H113   H   0.360564073627820   0.705583383887976   0.065524471428574   1.0
H114   H   0.073839859974136   0.963272405320915   0.160828571428574   1.0
H115   H   0.214317230307088   0.200288299992863   0.037381620408162   1.0
H116   H   0.794801982628933   0.980879028428610   0.099965310204084   1.0
H117   H   0.478944538792767   0.591214850299131   0.263477559183670   1.0
H118   H   0.828201767319491   0.090769915749725   0.127681616326534   1.0
H119   H   0.756191406250558   0.560846132121149   0.055259200000002   1.0
H120   H   0.711639605816337   0.708039804209832   0.076261210204080   1.0
H121   H   0.696428569894699   0.508700511307119   0.086389814285717   1.0
H122   H   0.016131386574990   0.763521717199083   0.179320393877553   1.0
H123   H   0.920526642002201   0.779437263394477   0.203761236734692   1.0
H124   H   0.932924357634256   0.908396062620874   0.177857146938777   1.0
H125   H   0.531384469082191   0.862797152268065   0.137124510204082   1.0
H126   H   0.573216326432913   0.679419152955901   0.129604067346939   1.0
H127   H   0.651125041792476   0.839089455912088   0.129677559183676   1.0
H128   H   0.098392116807794   0.796781078913924   0.049581644897962   1.0
H129   H   0.728797282688227   0.135962001052761   0.112924497959185   1.0
H130   H   0.414349916981976   0.748337306695689   0.261297965306120   1.0
H131   H   0.458436692487595   0.235800755195349   0.300287753061227   1.0
H132   H   0.799419140092496   0.459136944770272   0.469661244897957   1.0
H133   H   0.101011982718553   0.532134054629452   0.161951028571430   1.0
H134   H   0.212928590638825   0.434492283720367   0.157348983673472   1.0
H135   H   0.197331175657752   0.760653855956420   0.282097953061225   1.0
H136   H   0.118778311474976   0.631740838401448   0.299687755102042   1.0
H137   H   0.068829229789870   0.767954701486879   0.276955118367347   1.0
H138   H   0.052408534932894   0.071972774952783   0.219287755102037   1.0
H139   H   0.947190605203694   0.159135021871513   0.212391834693875   1.0
H140   H   0.946309989074763   0.009498594267320   0.235034710204083   1.0
H141   H   0.546731494284110   0.456120678703513   0.093544902040819   1.0
H142   H   0.940698079832508   0.950887212116605   0.339902061224493   1.0
H143   H   0.050475823614157   0.838838073747198   0.329606114285717   1.0
H144   H   0.373999818814575   0.329172776840267   0.322095910204084   1.0
H145   H   0.359969895389185   0.310985822203570   0.285493889795916   1.0
H146   H   0.537855427146212   0.633614653535062   0.338606153061221   1.0
H147   H   0.544541285208787   0.826738573254140   0.326097995918367   1.0
H148   H   0.479889319986889   0.686640020522802   0.309869416326528   1.0
H149   H   0.249993106765082   0.948145087658077   0.434667314285711   1.0
H150   H   0.344243599105262   0.927270930572966   0.457091818367346   1.0
H151   H   0.299827780793237   0.762893227510602   0.443122475510201   1.0
H152   H   0.760142575576552   0.980753291644476   0.410363255102041   1.0
H153   H   0.707244442012602   0.911469524356995   0.380948981632656   1.0
H154   H   0.787379149709523   0.796952483115255   0.402165316326531   1.0
H155   H   0.178605592061309   0.613551598680083   0.139808151020411   1.0
H156   H   0.357879763486594   0.567072942153573   0.260263248979591   1.0
H157   H   0.808896479130304   0.547066991564577   0.501783644897962   1.0
H158   H   0.348044584670355   0.878038655612023   0.637473436734695   1.0
H159   H   0.455558920809459   0.090909271638516   0.500806146938778   1.0
H160   H   0.047254814649001   0.962769663841996   0.404955106122451   1.0
H161   H   0.445050917885411   0.091092112688628   0.536075514285713   1.0
H162   H   0.420355578110204   0.938958990145217   0.517320438775513   1.0
H163   H   0.723979970879199   0.966437293294810   0.621232636734696   1.0
H164   H   0.798538523963565   0.050417605507988   0.597714248979592   1.0
H165   H   0.756735341897439   0.450670751758239   0.618848995918370   1.0
H166   H   0.807715223472378   0.337939481337649   0.592971412244900   1.0
H167   H   0.709921522488969   0.255719872566772   0.613646916326530   1.0
H168   H   0.322776497960078   0.552128465540846   0.560146955102041   1.0
H169   H   0.342797744871398   0.699539300651438   0.585842834693878   1.0
H170   H   0.257408982026824   0.572043001317503   0.593238753061222   1.0
H171   H   0.824028604333670   0.867447288152341   0.606816351020406   1.0
H172   H   0.455480282098371   0.966528605278349   0.631257118367344   1.0
H173   H   0.388867209438409   0.025914653984081   0.657665330612247   1.0
H174   H   0.248568690992869   0.635705506010922   0.491128571428568   1.0
H175   H   0.213945052886359   0.646833834092504   0.525477585714285   1.0
H176   H   0.155499318307030   0.510882675766517   0.503940816326534   1.0
H177   H   0.963346429477539   0.218959692580249   0.517475518367348   1.0
H178   H   0.851028976010028   0.196024320567489   0.531648985714284   1.0
H179   H   0.886318330246908   0.130789711895268   0.497695922448983   1.0
H180   H   0.982723262716547   0.230537051225511   0.601802046938772   1.0
H181   H   0.086151828917671   0.249778640991366   0.621610214285717   1.0
H182   H   0.549487478320671   0.416680048693784   0.146391848979590   1.0
H183   H   0.974319586175703   0.841020352460831   0.388430614285717   1.0
H184   H   0.967949120453291   0.895051122428448   0.306777565306120   1.0
H185   H   0.622277970335013   0.876233495847416   0.263834661224493   1.0
H186   H   0.054162258360620   0.583537000073889   0.341532648979595   1.0
H187   H   0.174303540614552   0.501776670471450   0.341944869387753   1.0
H188   H   0.158419823746783   0.680241829139902   0.355828577551023   1.0
H189   H   0.307673040883223   0.370589959390500   0.467904073469384   1.0
H190   H   0.401057390740363   0.248040822672074   0.452753028571429   1.0
H191   H   0.284688425925012   0.203648562706306   0.452055093877554   1.0
H192   H   0.452502569251095   0.182761654848726   0.357457142857143   1.0
H193   H   0.570718377009243   0.141976343912283   0.355879569387753   1.0
H194   H   0.532494179690296   0.319848523108071   0.345226522448982   1.0
H195   H   0.939502622535876   0.303585598340682   0.363157155102044   1.0
H196   H   0.875595298478792   0.140371117631140   0.369481612244897   1.0
H197   H   0.904499706189284   0.272271860545303   0.396761214285718   1.0
H198   H   0.798302328665031   0.684720572248267   0.286208171428569   1.0
H199   H   0.805918494275836   0.543662272528820   0.262189828571429   1.0
H200   H   0.902159041345868   0.557407102539024   0.288810185714283   1.0
H201   H   0.810929131618181   0.661355547189864   0.473375514285714   1.0
H202   H   0.571391193958966   0.008839324488299   0.287551024489794   1.0
H203   H   0.659700462243300   0.889989648452179   0.300361244897957   1.0
H204   H   0.818960623580210   0.307738659756019   0.183689779591837   1.0
H205   H   0.732018563660574   0.287051811061566   0.159718377551023   1.0
H206   H   0.791566500017879   0.119148393730008   0.170308171428573   1.0
H207   H   0.290522192823495   0.079062284427252   0.192514304081634   1.0
H208   H   0.324201049735883   0.189375821009499   0.221095922448981   1.0
H209   H   0.347436204793013   0.992795699296977   0.217432644897961   1.0
H210   H   0.924513866597422   0.968482284121279   0.415361210204083   1.0
H211   H   0.080024516151461   0.333088292278418   0.587848975510205   1.0
H212   H   0.760822765352820   0.027768954494583   0.222697979591835   1.0
H213   H   0.012294632064034   0.480319679689629   0.416510212244901   1.0
H214   H   0.193730616445322   0.682606823223985   0.039855102040818   1.0
H215   H   0.185004869071918   0.839055133940292   0.094689777551018   1.0
H216   H   0.321266206653831   0.307769496973684   0.088002030612245   1.0
H217   H   0.321380757472461   0.009888189778657   0.100791853061224   1.0
H218   H   0.395459675978735   0.039763363943528   0.075608157142859   1.0
H219   H   0.107482804778975   0.999678454310228   0.114612228571431   1.0
H220   H   0.242706241651703   0.191707818470910   0.126261224489795   1.0
H221   H   0.152099185447263   0.331230518439213   0.121057159183671   1.0
H222   H   0.475437091937316   0.283154587726223   0.093126530612246   1.0
H223   H   0.015143592453974   0.207690808940427   0.076183669387753   1.0
H224   H   0.976796512306592   0.019605523776313   0.085812238775510   1.0
H225   H   0.881042557472327   0.695711818100314   0.082620426530610   1.0
H226   H   0.970597518486969   0.463798528928756   0.097469369387753   1.0
H227   H   0.867878912533570   0.582474412850061   0.170520393877553   1.0
H228   H   0.967297598803533   0.640549816965290   0.132269373469384   1.0
H229   H   0.915530206298556   0.817975250682075   0.126065312244897   1.0
H230   H   0.628197619925608   0.874656833124689   0.181485702040817   1.0
H231   H   0.705311730693865   0.574190946633912   0.158895920408163   1.0
H232   H   0.721309998380271   0.615162594800026   0.193332673469385   1.0
H233   H   0.416504493115028   0.509740213407945   0.212255089795917   1.0
H234   H   0.585055897621302   0.616156538080268   0.221287746938778   1.0
H235   H   0.536924840432704   0.798631997499115   0.217477565306119   1.0
H236   H   0.186708485911474   0.756449368710513   0.185408144897963   1.0
H237   H   0.345968783251983   0.776432445601934   0.167479573469386   1.0
H238   H   0.369740773136641   0.590506496901327   0.173718355102039   1.0
H239   H   0.907613401158756   0.434423754031016   0.066573473469390   1.0
H240   H   0.268468157420699   0.873525704786097   0.333857167346942   1.0
H241   H   0.202055511113400   0.274931710530183   0.311714251020405   1.0
H242   H   0.295733256518503   0.054100008033217   0.286318330612246   1.0
H243   H   0.940612340302074   0.191659877394464   0.297255069387752   1.0
H244   H   0.040533323644148   0.310053439104422   0.303897934693879   1.0
H245   H   0.093080839936448   0.713878172698678   0.221038779591836   1.0
H246   H   0.143824397367347   0.304416215193918   0.239683657142855   1.0
H247   H   0.058206676047192   0.392698096475335   0.220581638775514   1.0
H248   H   0.933368344953912   0.276711814341347   0.256985722448981   1.0
H249   H   0.232713506248018   0.173943524520773   0.342630581632655   1.0
H250   H   0.059580978073157   0.149185763204969   0.339124485714286   1.0
H251   H   0.364959094269878   0.657722228283411   0.345081640816325   1.0
H252   H   0.626629985208247   0.020570972050685   0.518079563265303   1.0
H253   H   0.323821628334123   0.813793534304928   0.304753053061226   1.0
H254   H   0.396161168213055   0.010677663682358   0.411620393877549   1.0
H255   H   0.280472257170373   0.868361367723267   0.379189783673468   1.0
H256   H   0.324229581858802   0.694763519386413   0.386983677551022   1.0
H257   H   0.628355176513054   0.703229712398446   0.403844873469389   1.0
H258   H   0.546280670994214   0.943072279661827   0.394648961224490   1.0
H259   H   0.555364258146049   0.989219587485316   0.430495904081631   1.0
H260   H   0.633022311719273   0.487300613365854   0.490832659183674   1.0
H261   H   0.557533164763321   0.654568891412538   0.454514251020406   1.0
H262   H   0.648777276129707   0.536247127063014   0.439046977551023   1.0
H263   H   0.207531438233452   0.764755594370001   0.231659169387754   1.0
H264   H   0.215011621722056   0.515212911221980   0.262191853061225   1.0
H265   H   0.540146121405058   0.832942509588989   0.483173448979592   1.0
H266   H   0.833555913956047   0.203409714230851   0.068891836734693   1.0
H267   H   0.762919862071165   0.839032351646104   0.564263246938779   1.0
H268   H   0.644002841243974   0.055862950858490   0.565969351020406   1.0
H269   H   0.569329608495465   0.956977054173727   0.585957118367347   1.0
H270   H   0.659793574600279   0.358341939819120   0.565344908163269   1.0
H271   H   0.661461422493971   0.634220143846306   0.554993842857144   1.0
H272   H   0.778402869395286   0.575356396944301   0.566457165306126   1.0
H273   H   0.406497548914551   0.509694454587361   0.618955106122449   1.0
H274   H   0.519144317195661   0.647268045882079   0.581106146938772   1.0
H275   H   0.502015036443098   0.493344696602392   0.558191806122451   1.0
H276   H   0.372031331391888   0.032763041323847   0.593918391836738   1.0
H277   H   0.466117302328868   0.239808793711916   0.623802030612246   1.0
H278   H   0.350041733061474   0.285253517976400   0.634283648979590   1.0
H279   H   0.077619271073978   0.984489359383254   0.603328548979590   1.0
H280   H   0.227710105728626   0.193566700576177   0.575051055102044   1.0
H281   H   0.216586350100684   0.995206360798257   0.571257142857142   1.0
H282   H   0.390241518622460   0.494715758831660   0.149130608163269   1.0
H283   H   0.954305712090921   0.915456905708119   0.570810204081631   1.0
H284   H   0.920361991753488   0.097764582784841   0.568271404081635   1.0
H285   H   0.167195534546671   0.855622043521748   0.491230634693878   1.0
H286   H   0.060425553249033   0.772422122000691   0.537940824489795   1.0
H287   H   0.981599350469729   0.712210083738185   0.510842848979593   1.0
H288   H   0.932065580819682   0.707320013963241   0.432563236734694   1.0
H289   H   0.960819539920159   0.851577397948716   0.469510214285712   1.0
H290   H   0.063059756802090   0.927122308665830   0.456902018367345   1.0
H291   H   0.083438850649927   0.378050749422655   0.375714283673467   1.0
H292   H   0.971814271083574   0.588404196151259   0.387202048979589   1.0
H293   H   0.871801685740238   0.910932460906288   0.527881624489794   1.0
H294   H   0.339003996129250   0.510608534158287   0.429538804081631   1.0
H295   H   0.516517214461949   0.722435894777291   0.509620432653058   1.0
H296   H   0.171068065161585   0.439987980911638   0.434742830612244   1.0
H297   H   0.184317714479889   0.291283765025248   0.412242889795920   1.0
H298   H   0.551985699751533   0.200732760387197   0.403920387755100   1.0
H299   H   0.449016560857302   0.489939874737829   0.385595906122447   1.0
H300   H   0.806963767811567   0.463261568306855   0.378838753061224   1.0
H301   H   0.733435742609842   0.276784925625463   0.410063295918370   1.0
H302   H   0.694617639059452   0.163167145180537   0.382914251020409   1.0
H303   H   0.692477400568698   0.491413788628229   0.299297955102041   1.0
H304   H   0.799411767265951   0.574430880524588   0.337577587755099   1.0
H305   H   0.888444095091771   0.418085432894841   0.328759173469386   1.0
H306   H   0.487104640050447   0.456349164319974   0.417210171428572   1.0
H307   H   0.760736753815195   0.117370586428933   0.313914318367345   1.0
H308   H   0.774458800888645   0.006643369542900   0.268910232653063   1.0
H309   H   0.409382149404848   0.158256463941839   0.135879595918368   1.0
H310   H   0.528793407301535   0.158896287650300   0.145991851020405   1.0
H311   H   0.593824650763523   0.280672997196696   0.102632638775511   1.0
H312   H   0.536474017142808   0.065028448333017   0.224873483673470   1.0
H313   H   0.520676175809072   0.262046163760431   0.220993859183672   1.0
H314   H   0.452094486880910   0.014253832621137   0.179844914285717   1.0
H315   H   0.804322463439156   0.197898124275682   0.233577534693879   1.0
H316   H   0.666321604068223   0.343100425049741   0.205218373469386   1.0
H317   H   0.655054908660411   0.206976788532629   0.306448955102042   1.0
O318   O   0.403863352519572   0.454715305927877   0.132616316326534   1.0
O319   O   0.186393651901859   0.215364203250559   0.085555095918366   1.0
O320   O   0.003354256699261   0.151863928143499   0.117473485714285   1.0
O321   O   0.844643757476440   0.336998049303190   0.101089791836735   1.0
O322   O   0.781738565182671   0.774535745345318   0.169228573469390   1.0
O323   O   0.264202018081491   0.939130497175356   0.064204079591839   1.0
O324   O   0.541184022114244   0.675294529419318   0.182814269387755   1.0
O325   O   0.046796618532561   0.146827624374900   0.273077518367344   1.0
O326   O   0.197681914616830   0.572431442861074   0.207508165306123   1.0
O327   O   0.070031773589690   0.481919227535350   0.256467314285715   1.0
O328   O   0.152636020274784   0.050403883574525   0.316316332653059   1.0
O329   O   0.374622529176136   0.014652579896584   0.322949002040815   1.0
O330   O   0.619965980776193   0.129422145845552   0.193459179591834   1.0
O331   O   0.416869569716404   0.847704156577016   0.366697975510206   1.0
O332   O   0.355582104411994   0.720253616063658   0.209781646938772   1.0
O333   O   0.473046184502138   0.819906158656238   0.422236773469386   1.0
O334   O   0.572178425723727   0.433212647728865   0.594740810204080   1.0
O335   O   0.666106983234940   0.733072918228736   0.499173457142859   1.0
O336   O   0.681818813031043   0.769485719643257   0.442597993877548   1.0
O337   O   0.688189557918733   0.707125838893141   0.592542842857142   1.0
O338   O   0.385416969990480   0.331248821967442   0.592016336734694   1.0
O339   O   0.247867198758549   0.099797142750688   0.612171408163263   1.0
O340   O   0.067469122244525   0.052783810686954   0.561826512244899   1.0
O341   O   0.005888111072387   0.939895840584910   0.512259191836733   1.0
O342   O   0.078442543791795   0.704509348389941   0.468989783673471   1.0
O343   O   0.623766959183200   0.380267247279264   0.388265336734690   1.0
O344   O   0.200945929350802   0.492739194865727   0.393757177551024   1.0
O345   O   0.369146594897998   0.324259821942320   0.405636767346941   1.0
O346   O   0.756391832603221   0.357107948393967   0.345928583673469   1.0
O347   O   0.787321799140322   0.305242250452388   0.287673483673473   1.0
O348   O   0.576172736822130   0.856730286737339   0.548926530612242   1.0
O349   O   0.669743311393233   0.150537436490786   0.251714277551024   1.0
O350   O   0.070325312299332   0.685200440029618   0.415781606122451   1.0
O351   O   0.823899723030820   0.633454697607945   0.120310220408164   1.0
O352   O   0.431565073268573   0.246749738406365   0.174902040816327   1.0


# Number_of_total_atoms: 352
# Number_of_atom_type: 3
# Name_of_each_atom: C H O
# Number_of_each_atom: 105 212 35
# Created_by: Lihua Chen (lihua.chen@mse.gatech.edu)
# Tool: VASP
# K-points: 1 2 1
# Pseudopotential: PBE-HSE06
# Material_class: MC_Pol
# Geometry_class: GC_PD
# Bandgap_(eV): 4.86
