#======================================================================

# Note: Disordered slab of polyproplyene oxide
# Common_name: Disordered slab-4

#----------------------------------------------------------------------

data_1
_audit_creation_method   'vasp2cif'
_cell_length_a    14.3858147
_cell_length_b    8.9404602
_cell_length_c    49.0
_cell_angle_alpha    90.0
_cell_angle_beta    90.0
_cell_angle_gamma    90.0

_symmetry_space_group_name_H-M    'P 1'
loop_
_atom_site_label
_atom_site_type_symbol
_atom_site_fract_x
_atom_site_fract_y
_atom_site_fract_z
_atom_site_occupancy
C1   C   0.237738172729280   0.534131408582304   0.063077536734696   1.0
C2   C   0.577211487368871   0.835245617445956   0.464544881632655   1.0
C3   C   0.250007224130307   0.464011897284664   0.036528569387755   1.0
C4   C   0.078769101620644   0.857839499134506   0.065338757142854   1.0
C5   C   0.149755710394352   0.755339182651916   0.050602036734695   1.0
C6   C   0.976264298747012   0.823736086873915   0.059532673469391   1.0
C7   C   0.168739682153699   0.923384212369740   0.134940828571430   1.0
C8   C   0.170387054964635   0.940553306193344   0.103248985714288   1.0
C9   C   0.264702193056884   0.950027270408292   0.145516336734694   1.0
C10   C   0.975534281002524   0.103010357341560   0.125200000000000   1.0
C11   C   0.015178639830530   0.994924243385142   0.147371448979591   1.0
C12   C   0.289261114978771   0.606398281377061   0.206787771428573   1.0
C13   C   0.878320565327456   0.050011989315720   0.116271428571430   1.0
C14   C   0.040585577680211   0.341475755353173   0.139520412244899   1.0
C15   C   0.970133293875946   0.523561426960995   0.106363257142860   1.0
C16   C   0.875067450993932   0.612527730955058   0.195077546938776   1.0
C17   C   0.967158071346489   0.589050192293236   0.178389802040819   1.0
C18   C   0.881469472841189   0.675209056911861   0.224359200000002   1.0
C19   C   0.666952696116681   0.743348781978810   0.161269404081629   1.0
C20   C   0.755074246855131   0.662525202002463   0.162073485714288   1.0
C21   C   0.613295658535073   0.741369006933219   0.135020391836733   1.0
C22   C   0.542545456254210   0.628432997218646   0.226577563265309   1.0
C23   C   0.604446649795925   0.721280577928191   0.207573481632650   1.0
C24   C   0.011723861562039   0.506157445899710   0.134912257142858   1.0
C25   C   0.238975461014384   0.410222753410387   0.084957161224487   1.0
C26   C   0.800688646434466   0.702265885597257   0.446318334693878   1.0
C27   C   0.250014119812065   0.569051266510868   0.179432655102040   1.0
C28   C   0.235666659879890   0.259890447250129   0.334153077551022   1.0
C29   C   0.189510108176215   0.567082676571836   0.243465306122452   1.0
C30   C   0.093373780214200   0.534243203722333   0.286304083673471   1.0
C31   C   0.049226033753932   0.130913809112421   0.236277561224490   1.0
C32   C   0.124070609640206   0.239324358269613   0.240740834693881   1.0
C33   C   0.086867287398050   0.995382720902889   0.221077548979594   1.0
C34   C   0.948382659203858   0.036975747624268   0.303079567346941   1.0
C35   C   0.155455686496502   0.453565007761007   0.265255130612246   1.0
C36   C   0.964905977831066   0.142125838220274   0.279142885714286   1.0
C37   C   0.898437750626663   0.888307718208956   0.295273451020407   1.0
C38   C   0.186256861768143   0.127944241617449   0.320634726530613   1.0
C39   C   0.081076881937037   0.121661511339205   0.330026510204078   1.0
C40   C   0.333144621972643   0.800750726455895   0.373704093877549   1.0
C41   C   0.303650338273855   0.749701911317722   0.327355132653061   1.0
C42   C   0.254747949728561   0.889113068251227   0.314357134693878   1.0
C43   C   0.361401610435038   0.666596580788983   0.306940818367344   1.0
C44   C   0.397200855089565   0.902848412657775   0.391885718367348   1.0
C45   C   0.360581441383367   0.890869174721004   0.421530587755100   1.0
C46   C   0.645653916284630   0.815369683095284   0.371981640816330   1.0
C47   C   0.553173759425668   0.902982611566237   0.371975489795915   1.0
C48   C   0.724863868849916   0.878766889427013   0.354489773469389   1.0
C49   C   0.697204698458961   0.699402453578394   0.444395883673472   1.0
C50   C   0.660967529353762   0.692344662526430   0.413953040816324   1.0
C51   C   0.569043698303716   0.618399990192898   0.257636712244896   1.0
C52   C   0.547529338049934   0.959042332071455   0.484412214285712   1.0
C53   C   0.391841360225499   0.586410551886352   0.207071420408163   1.0
C54   C   0.446040536028868   0.938159861166881   0.494075540816325   1.0
C55   C   0.270749810227990   0.163251093047762   0.565893914285716   1.0
C56   C   0.628692798330007   0.096831749220250   0.515465328571430   1.0
C57   C   0.721304744735797   0.240723648655134   0.548477563265308   1.0
C58   C   0.549906860679918   0.837225403676648   0.589157106122450   1.0
C59   C   0.632390871821812   0.896383387512870   0.570612228571427   1.0
C60   C   0.541148267397048   0.906595501649903   0.617422455102044   1.0
C61   C   0.362826639217033   0.681226711349822   0.586214261224491   1.0
C62   C   0.405160091489293   0.776445557019535   0.563093846938777   1.0
C63   C   0.290783461850097   0.773705116432374   0.604795883673468   1.0
C64   C   0.261852142444184   0.328068145753839   0.559328585714283   1.0
C65   C   0.313979937472709   0.421687476445562   0.581540789795916   1.0
C66   C   0.037589549933522   0.468855126719319   0.534936710204079   1.0
C67   C   0.019634438917109   0.707086711263479   0.404820422448978   1.0
C68   C   0.135213614283522   0.490084380667561   0.548667363265309   1.0
C69   C   0.009110203539599   0.601119000563301   0.517240797959182   1.0
C70   C   0.966831388423209   0.118256787273658   0.502544871428569   1.0
C71   C   0.984856095776067   0.227408841884895   0.524630644897961   1.0
C72   C   0.897360091813219   0.173819911417979   0.479536718367349   1.0
C73   C   0.182308604322564   0.908306699916857   0.486287720408164   1.0
C74   C   0.109973472687649   0.006248000522390   0.501695906122450   1.0
C75   C   0.237321060447137   0.815515067110304   0.506132632653063   1.0
C76   C   0.063705547382035   0.678005400661590   0.432722442857141   1.0
C77   C   0.210079009289615   0.330227989829872   0.436095879591839   1.0
C78   C   0.123625789507770   0.428107705238709   0.441744902040817   1.0
C79   C   0.214180271625494   0.307764895592285   0.404720385714285   1.0
C80   C   0.096272364748309   0.827930546572986   0.444642826530611   1.0
C81   C   0.685248420445731   0.089024544843902   0.542916357142857   1.0
C82   C   0.418555189648039   0.427403043525658   0.474853048979590   1.0
C83   C   0.310191441573345   0.407639004980972   0.472238812244896   1.0
C84   C   0.444643354123002   0.385436602021898   0.504022481632653   1.0
C85   C   0.581291937536214   0.286855535691551   0.424012242857145   1.0
C86   C   0.557337736318821   0.375258087944957   0.449953040816325   1.0
C87   C   0.508796905329248   0.300277652374092   0.400314253061225   1.0
C88   C   0.824580272120421   0.285295179771616   0.393257140816324   1.0
C89   C   0.906327369836063   0.174529047173657   0.393536704081633   1.0
C90   C   0.755922262782931   0.427190560056402   0.324506097959187   1.0
C91   C   0.753718689286330   0.414730384907927   0.356079569387752   1.0
C92   C   0.856159985155379   0.444326165670979   0.314024477551023   1.0
C93   C   0.736938151997748   0.213476751454024   0.407112277551022   1.0
C94   C   0.629916031102496   0.240655374764714   0.320504091836732   1.0
C95   C   0.477919099013555   0.106126550398379   0.301818381632650   1.0
C96   C   0.673486771659860   0.167670406943927   0.226097963265303   1.0
C97   C   0.670504660399942   0.105178030992185   0.254618353061225   1.0
C98   C   0.561925457026774   0.261150964018611   0.109895902040819   1.0
C99   C   0.766550830103490   0.123003735311073   0.213036751020411   1.0
C100   C   0.432659354356900   0.117850801460982   0.197397971428572   1.0
C101   C   0.509818606241325   0.152626382700078   0.217767365306123   1.0
C102   C   0.332157524592610   0.139044263068250   0.210179581632651   1.0
C103   C   0.493580346200346   0.286932657001259   0.134206110204083   1.0
C104   C   0.496055186919655   0.164447921819509   0.155406134693877   1.0
C105   C   0.586442879734854   0.130353480014371   0.299124504081632   1.0
H106   H   0.311380202888337   0.867000168514814   0.141212232653061   1.0
H107   H   0.302948167405496   0.049602592045538   0.137230620408161   1.0
H108   H   0.956244438488426   0.702511969126597   0.060826518367350   1.0
H109   H   0.936801855233128   0.901886471123710   0.071512261224491   1.0
H110   H   0.246656659632912   0.452759657718737   0.105516316326529   1.0
H111   H   0.260872065869165   0.552676225771911   0.021069389795919   1.0
H112   H   0.309454667172936   0.395704496285326   0.034814289795918   1.0
H113   H   0.186875505910692   0.406598756515912   0.028567334693875   1.0
H114   H   0.258119333345789   0.950161458131653   0.168383657142854   1.0
H115   H   0.955452109361595   0.839372877024829   0.038563281632655   1.0
H116   H   0.876596693547015   0.932902760419424   0.111265299999999   1.0
H117   H   0.639793907535875   0.562217166404920   0.259251030612248   1.0
H118   H   0.842521452747476   0.046660920206321   0.135961222448977   1.0
H119   H   0.912986603393414   0.453408416269220   0.102436726530613   1.0
H120   H   0.022797262917614   0.504009871885565   0.091648997959183   1.0
H121   H   0.942592121668298   0.638231128191812   0.102757161224488   1.0
H122   H   0.903692899645094   0.788715529431023   0.223471428571429   1.0
H123   H   0.926520922030228   0.607550425648114   0.237226526530613   1.0
H124   H   0.814250540847020   0.662491601942371   0.234724473469384   1.0
H125   H   0.544568177984388   0.784756068820705   0.139122438775509   1.0
H126   H   0.605009607137511   0.625961043929259   0.127302053061221   1.0
H127   H   0.649942787042853   0.807238155369227   0.120106134693877   1.0
H128   H   0.187299645949146   0.333168554343544   0.086775526530616   1.0
H129   H   0.853288976397003   0.129494463830845   0.100608163265306   1.0
H130   H   0.571824284654518   0.725407837507063   0.266879567346940   1.0
H131   H   0.216446288578986   0.377562253450890   0.327971400000003   1.0
H132   H   0.829376413419254   0.788301758784186   0.433614302040816   1.0
H133   H   0.180598516954341   0.604910673390165   0.178412263265308   1.0
H134   H   0.249895989554211   0.452256395034340   0.174422438775508   1.0
H135   H   0.064657916106761   0.456987717477901   0.300791838775510   1.0
H136   H   0.031548953567430   0.586902730130156   0.277459204081630   1.0
H137   H   0.133010054689500   0.621554201426903   0.296251024489799   1.0
H138   H   0.155893617898471   0.962140651327992   0.229789812244896   1.0
H139   H   0.099435320823368   0.034976980267750   0.200318357142855   1.0
H140   H   0.039348289395107   0.892211387507771   0.218675497959183   1.0
H141   H   0.579519274636560   0.364386231482804   0.098526546938778   1.0
H142   H   0.827381531613916   0.900644834815104   0.290218353061228   1.0
H143   H   0.898409903750533   0.811801578178269   0.311789765306124   1.0
H144   H   0.302649324407049   0.261317689216938   0.324959191836733   1.0
H145   H   0.247032008552146   0.224949259323360   0.355277548979593   1.0
H146   H   0.389582238953764   0.568245916468598   0.316589822448982   1.0
H147   H   0.409810394679972   0.745876638430758   0.297810224489794   1.0
H148   H   0.317539054635539   0.633141927078874   0.291910210204080   1.0
H149   H   0.359830611470336   0.771166164354717   0.428650991836733   1.0
H150   H   0.293911550244005   0.932522589832679   0.422812248979589   1.0
H151   H   0.406258298322164   0.963829658343535   0.432991806122452   1.0
H152   H   0.792930809820596   0.836800324887079   0.361473473469388   1.0
H153   H   0.727769606263593   0.990825997972678   0.355153065306119   1.0
H154   H   0.714985992416544   0.848477643242568   0.333220424489795   1.0
H155   H   0.289817176638593   0.618153906663551   0.162351024489794   1.0
H156   H   0.519126372453556   0.552709825832011   0.270836732653059   1.0
H157   H   0.835208575291880   0.597181820685250   0.438895946938778   1.0
H158   H   0.261358656315792   0.098466989428573   0.549089783673466   1.0
H159   H   0.419020960974841   0.822080791769537   0.493806100000001   1.0
H160   H   0.071685728024846   0.728260073234260   0.390706120408161   1.0
H161   H   0.401969420612652   0.005617227623247   0.480844926530615   1.0
H162   H   0.433125132634999   0.992634629702842   0.514010216326533   1.0
H163   H   0.773335221675005   0.267117099855774   0.534020404081630   1.0
H164   H   0.750034407158047   0.235043817990487   0.568275530612247   1.0
H165   H   0.531993248877313   0.022838902632777   0.612438746938778   1.0
H166   H   0.604537072203492   0.897513027349532   0.630095889795918   1.0
H167   H   0.485148456694638   0.866552685956812   0.628597961224493   1.0
H168   H   0.266155061763726   0.711057368165456   0.622495924489797   1.0
H169   H   0.228812658069344   0.784957355998294   0.592575540816327   1.0
H170   H   0.320555901502054   0.880097894737006   0.610016338775509   1.0
H171   H   0.672173116479804   0.326288572930508   0.547924510204084   1.0
H172   H   0.337913194447026   0.130455242113825   0.573124477551019   1.0
H173   H   0.218288429643124   0.122165948459788   0.581277575510207   1.0
H174   H   0.192228112044290   0.759041464107185   0.520610187755103   1.0
H175   H   0.278959362656046   0.726045399765887   0.497279575510206   1.0
H176   H   0.279508528634111   0.892927256697590   0.518073491836738   1.0
H177   H   0.900384098510600   0.079563018467439   0.464418373469385   1.0
H178   H   0.923844549450507   0.260608553461260   0.466406142857146   1.0
H179   H   0.822105431401113   0.193390559470302   0.487112240816323   1.0
H180   H   0.951621982173869   0.589609469991267   0.502542846938773   1.0
H181   H   0.991153903852243   0.694391548211357   0.529942881632650   1.0
H182   H   0.512696510681458   0.386711614688473   0.145265306122447   1.0
H183   H   0.979461990428668   0.613433780511656   0.398236722448978   1.0
H184   H   0.945796709031711   0.834753450387261   0.279610226530615   1.0
H185   H   0.438915531144715   0.204262415932462   0.297736732653064   1.0
H186   H   0.240456176597355   0.408768734298491   0.394771420408162   1.0
H187   H   0.148921485830066   0.261682278950246   0.397889818367346   1.0
H188   H   0.264229526048325   0.223671998450371   0.399840842857145   1.0
H189   H   0.429656430928446   0.482064648081540   0.518497934693876   1.0
H190   H   0.519251530467720   0.366768580883566   0.506087789795920   1.0
H191   H   0.408037856903576   0.281126535298483   0.509795910204083   1.0
H192   H   0.445053438648841   0.246967119209366   0.408044934693876   1.0
H193   H   0.535747009170080   0.235089688112474   0.383608136734694   1.0
H194   H   0.494108832084429   0.407873881033552   0.390863302040813   1.0
H195   H   0.886391036303280   0.058252046130690   0.396612206122448   1.0
H196   H   0.949640891732045   0.192945325118721   0.411797971428570   1.0
H197   H   0.954736147129715   0.164951296354971   0.376791818367344   1.0
H198   H   0.895288578963829   0.346836743370325   0.319367312244900   1.0
H199   H   0.887989750069558   0.545014472521224   0.322593844897959   1.0
H200   H   0.840748789847822   0.456763925865921   0.291624497959184   1.0
H201   H   0.829877059378504   0.704100276627820   0.467385738775512   1.0
H202   H   0.463946988000615   0.077290204815185   0.322565273469387   1.0
H203   H   0.456481369803825   0.013954561309944   0.288424512244895   1.0
H204   H   0.781662911312210   0.000208054167054   0.212840800000002   1.0
H205   H   0.827589959156086   0.173623098283017   0.222522465306120   1.0
H206   H   0.775497163883252   0.177385756943473   0.192659183673470   1.0
H207   H   0.326714760200545   0.243859941348433   0.223134685714285   1.0
H208   H   0.322599574426604   0.034850577378556   0.221334693877552   1.0
H209   H   0.280071492926986   0.153552487152730   0.194255089795916   1.0
H210   H   0.975478865301945   0.803636461577227   0.404930583673469   1.0
H211   H   0.074236803564553   0.628399397158546   0.506224495918367   1.0
H212   H   0.670122547873497   0.984443753801401   0.253346969387756   1.0
H213   H   0.093637894557339   0.433197007017604   0.462146914285711   1.0
H214   H   0.306903452607379   0.352172039197711   0.083951016326530   1.0
H215   H   0.293779489596787   0.610156566660855   0.066928553061224   1.0
H216   H   0.090655783297414   0.972598748328416   0.057573475510203   1.0
H217   H   0.216154334311007   0.810056791036324   0.050712234693876   1.0
H218   H   0.127386438531005   0.741760474477587   0.029489789795917   1.0
H219   H   0.152188655676205   0.807775018113723   0.141310208163269   1.0
H220   H   0.231217888549615   0.890365800185542   0.094202042857141   1.0
H221   H   0.164763445757437   0.050401231023876   0.095761240816330   1.0
H222   H   0.546438165924656   0.177676547343729   0.095548979591840   1.0
H223   H   0.998439865904849   0.873196706361938   0.142455122448979   1.0
H224   H   0.991765652313042   0.002033497112372   0.168914289795921   1.0
H225   H   0.068342059209201   0.593859821667792   0.136855106122447   1.0
H226   H   0.075383801516644   0.317008334761113   0.159993893877548   1.0
H227   H   0.846135999513464   0.502220277206760   0.196159169387755   1.0
H228   H   0.015762548366482   0.514758736916029   0.187761228571432   1.0
H229   H   0.007261173744993   0.689559626919426   0.177526514285717   1.0
H230   H   0.683844342858109   0.856586767200191   0.167557153061225   1.0
H231   H   0.801050078866929   0.686293519879435   0.144406104081632   1.0
H232   H   0.739058455966351   0.546591594915888   0.167106122448978   1.0
H233   H   0.545951575478028   0.511403238504435   0.218155102040818   1.0
H234   H   0.674772851064183   0.700465094626786   0.212000010204079   1.0
H235   H   0.581931261772752   0.832796056739895   0.207497967346939   1.0
H236   H   0.272508556640872   0.730385243479972   0.211236720408166   1.0
H237   H   0.420890816840561   0.618053207149224   0.187387738775513   1.0
H238   H   0.405090481250255   0.465835092023560   0.208946928571429   1.0
H239   H   0.093853342904524   0.300805555848235   0.124344883673473   1.0
H240   H   0.196864623871456   0.862928800913402   0.301197985714289   1.0
H241   H   0.052340198709771   0.232420921688124   0.330142818367349   1.0
H242   H   0.191261826832786   0.136637272877742   0.297697963265307   1.0
H243   H   0.898222163253642   0.161203144777716   0.268971424489798   1.0
H244   H   0.998299992005322   0.244258142326949   0.286159204081635   1.0
H245   H   0.127921681071008   0.615928025718411   0.233695906122449   1.0
H246   H   0.186938088393425   0.186186209967133   0.249549010204085   1.0
H247   H   0.149818160802532   0.293450274517191   0.221114295918369   1.0
H248   H   0.986378442647393   0.177948334247937   0.228016328571428   1.0
H249   H   0.075432460561302   0.087158846700085   0.350675544897960   1.0
H250   H   0.911005512951590   0.100592159674285   0.318763265306124   1.0
H251   H   0.254699290683895   0.673229382532234   0.336848979591835   1.0
H252   H   0.555523449082102   0.063859128862291   0.474667373469387   1.0
H253   H   0.302788405859282   0.947331514321824   0.300557118367344   1.0
H254   H   0.392154126662007   0.022489927308214   0.383532622448982   1.0
H255   H   0.270569104438692   0.854987364073274   0.377122451020405   1.0
H256   H   0.328299550528754   0.683911159293565   0.382173500000000   1.0
H257   H   0.630298407778042   0.697948434466497   0.367930587755105   1.0
H258   H   0.529233620672173   0.900040872616380   0.351306136734692   1.0
H259   H   0.575327715016378   0.012839383816058   0.378259153061222   1.0
H260   H   0.673236712829343   0.604429803289094   0.456432655102042   1.0
H261   H   0.585858971198903   0.671081808518089   0.412059161224491   1.0
H262   H   0.692227448195894   0.600078752098241   0.403167336734697   1.0
H263   H   0.235687472048419   0.648890501184717   0.252655108163268   1.0
H264   H   0.215626112576025   0.387975542914447   0.273416324489794   1.0
H265   H   0.535003200062071   0.852247024152071   0.446255122448982   1.0
H266   H   0.020628431978899   0.108770731958515   0.106522463265307   1.0
H267   H   0.742798160746503   0.016062931525603   0.539328595918370   1.0
H268   H   0.671804524216483   0.171673500654919   0.502591814285715   1.0
H269   H   0.564601822655199   0.162543131728278   0.518183651020408   1.0
H270   H   0.560695064423427   0.718562529924355   0.588363259183673   1.0
H271   H   0.632453454304539   0.824351357215370   0.552434726530613   1.0
H272   H   0.699157948975945   0.861899759925109   0.578157153061227   1.0
H273   H   0.412236437328780   0.637112595165959   0.600765306122447   1.0
H274   H   0.348882368128933   0.817796840032912   0.551036757142860   1.0
H275   H   0.449530181978503   0.707768969208097   0.550557118367344   1.0
H276   H   0.290248212358804   0.355404546177610   0.539536769387752   1.0
H277   H   0.384945727126599   0.385414198253464   0.584551053061226   1.0
H278   H   0.271007021938075   0.424897590842136   0.598871426530614   1.0
H279   H   0.989596821374320   0.458385833427229   0.552108142857143   1.0
H280   H   0.142234405396586   0.583759715187817   0.561934724489795   1.0
H281   H   0.172229196028781   0.529903348823140   0.531567320408165   1.0
H282   H   0.368860332950071   0.239552523258254   0.141377546938777   1.0
H283   H   0.019168660639011   0.172840152009179   0.542575524489799   1.0
H284   H   0.919819786084133   0.266882212618093   0.532144895918364   1.0
H285   H   0.232767943271227   0.963225696144811   0.471026518367346   1.0
H286   H   0.141845139990579   0.086259564132952   0.515387787755103   1.0
H287   H   0.067966717241255   0.925979268941880   0.513726526530611   1.0
H288   H   0.010215438128782   0.637000800025930   0.446614326530614   1.0
H289   H   0.037561835131939   0.903418886647465   0.443200014285715   1.0
H290   H   0.150666308804880   0.868700259970957   0.431434710204080   1.0
H291   H   0.210495989497211   0.225930193168359   0.446310240816324   1.0
H292   H   0.065346163537058   0.383233124845184   0.430995940816324   1.0
H293   H   0.936350000393098   0.016312381772025   0.511244871428573   1.0
H294   H   0.444865830226497   0.538750846404973   0.471516357142860   1.0
H295   H   0.556148975003829   0.728729836524522   0.474814279591840   1.0
H296   H   0.263096451534302   0.488786953047452   0.482353055102038   1.0
H297   H   0.286432008609147   0.295580992575751   0.480469373469390   1.0
H298   H   0.588368283375708   0.164800252676031   0.430112255102038   1.0
H299   H   0.566867971683244   0.490833838732371   0.446244922448983   1.0
H300   H   0.842472661628264   0.389340170654748   0.403973481632654   1.0
H301   H   0.759905394860951   0.146908578598669   0.422683638775510   1.0
H302   H   0.700395237261048   0.138775887621534   0.392765279591835   1.0
H303   H   0.711392132695828   0.510586680985391   0.315761255102039   1.0
H304   H   0.690475736490612   0.387047201440481   0.366420436734693   1.0
H305   H   0.789788804939910   0.509982718786667   0.363840842857144   1.0
H306   H   0.602924302924606   0.337748833108165   0.467818359183674   1.0
H307   H   0.636742325062755   0.189573071417506   0.341322451020410   1.0
H308   H   0.627351039076011   0.032161655392194   0.301797983673467   1.0
H309   H   0.472719629844811   0.058244205370997   0.145426536734696   1.0
H310   H   0.567257244040547   0.140914502365327   0.161104085714285   1.0
H311   H   0.629471343044621   0.225234490725654   0.117202059183676   1.0
H312   H   0.500100894529112   0.087348982326432   0.236257124489796   1.0
H313   H   0.503701649931578   0.257533689373169   0.223891824489797   1.0
H314   H   0.440701985407891   0.998561617667065   0.190942842857140   1.0
H315   H   0.736667148924141   0.117640499087507   0.266291871428571   1.0
H316   H   0.668892155270150   0.291960418323882   0.227316330612247   1.0
H317   H   0.584218361995170   0.333273739085598   0.323157175510204   1.0
O318   O   0.401371595589929   0.292263467600918   0.126791818367344   1.0
O319   O   0.094249643018131   0.858544149662450   0.094214304081632   1.0
O320   O   0.112566311590264   0.031665047846197   0.146677563265307   1.0
O321   O   0.961791812875219   0.246790472821523   0.136418363265307   1.0
O322   O   0.818296248456477   0.721056886982169   0.182983673469387   1.0
O323   O   0.154148926998204   0.613031094305413   0.062869402040818   1.0
O324   O   0.600526100200639   0.675801934669984   0.179051030612243   1.0
O325   O   0.030068377010309   0.060778784071985   0.261142887755099   1.0
O326   O   0.251696367255448   0.498730479220747   0.225365308163262   1.0
O327   O   0.084490028917166   0.359274626601433   0.254383710204081   1.0
O328   O   0.038173451518183   0.003305210172513   0.315232646938775   1.0
O329   O   0.220547550914858   0.994968827219878   0.333465342857146   1.0
O330   O   0.601318429327470   0.118611355151494   0.208689787755105   1.0
O331   O   0.362903145137828   0.813669580454032   0.347706153061225   1.0
O332   O   0.444274893934228   0.671551582993459   0.226173479591836   1.0
O333   O   0.486323419694820   0.849249404409854   0.392155083673472   1.0
O334   O   0.468569708464273   0.886685922498707   0.574073479591839   1.0
O335   O   0.669197900901644   0.836822728655513   0.456924516326531   1.0
O336   O   0.681821350027541   0.825246098629243   0.398602077551018   1.0
O337   O   0.623402913704986   0.055343918426033   0.564661220408162   1.0
O338   O   0.320764329044223   0.563615282354256   0.571112265306120   1.0
O339   O   0.164186571929079   0.352082535975050   0.559083667346940   1.0
O340   O   0.039827984159977   0.345539326935317   0.516604053061222   1.0
O341   O   0.044575605439988   0.085361411261580   0.486912240816324   1.0
O342   O   0.122603949569850   0.798860443447865   0.472430638775514   1.0
O343   O   0.670949619558215   0.331412447873767   0.414061255102041   1.0
O344   O   0.291304787903321   0.407974580547879   0.443259181632655   1.0
O345   O   0.466053236456602   0.336282443268409   0.455310200000000   1.0
O346   O   0.809544557806653   0.291018632351836   0.364634689795921   1.0
O347   O   0.719761717770496   0.295256613300509   0.312163293877553   1.0
O348   O   0.609423635909891   0.957163245355090   0.506504059183676   1.0
O349   O   0.595854852766870   0.179353172446312   0.270538797959183   1.0
O350   O   0.142387278212332   0.578871790067360   0.432504069387754   1.0
O351   O   0.939012317460197   0.530317231321042   0.153636738775511   1.0
O352   O   0.433722825583175   0.218577137673520   0.174665295918366   1.0


# Number_of_total_atoms: 352
# Number_of_atom_type: 3
# Name_of_each_atom: C H O
# Number_of_each_atom: 105 212 35
# Created_by: Lihua Chen (lihua.chen@mse.gatech.edu)
# Tool: VASP
# K-points: 1 2 1
# Pseudopotential: PBE-HSE06
# Material_class: MC_Pol
# Geometry_class: GC_PD
# Bandgap_(eV): 4.82
