#======================================================================

# Note: Disordered slab of polyproplyene oxide
# Common_name: Disordered slab-5

#----------------------------------------------------------------------

data_1
_audit_creation_method   'vasp2cif'
_cell_length_a    12.9512234
_cell_length_b    8.977563
_cell_length_c    49.0
_cell_angle_alpha    90.0
_cell_angle_beta    90.0
_cell_angle_gamma    90.0

_symmetry_space_group_name_H-M    'P 1'
loop_
_atom_site_label
_atom_site_type_symbol
_atom_site_fract_x
_atom_site_fract_y
_atom_site_fract_z
_atom_site_occupancy
C1   C   0.229048878888150   0.852996653991738   0.079663257142855   1.0
C2   C   0.617861460099590   0.683318067497829   0.456381661224491   1.0
C3   C   0.186913847845446   0.727829044474539   0.063744914285714   1.0
C4   C   0.162823436433037   0.231180934068632   0.058538787755104   1.0
C5   C   0.231511843120551   0.096618826289493   0.066918353061226   1.0
C6   C   0.110442284548966   0.193817765467088   0.030379587755100   1.0
C7   C   0.012397477446029   0.372755022716078   0.117634675510203   1.0
C8   C   0.110612090901000   0.334755868602649   0.101608159183677   1.0
C9   C   0.024728389751971   0.431234111083377   0.147410218367348   1.0
C10   C   0.844689622140251   0.572096369582702   0.066455102040820   1.0
C11   C   0.878454609932838   0.446550049272837   0.086055093877548   1.0
C12   C   0.283985781605772   0.571895914292107   0.223040836734697   1.0
C13   C   0.756821444374125   0.525201727907671   0.049263273469386   1.0
C14   C   0.899888824402488   0.824002181883884   0.080022461224488   1.0
C15   C   0.793744519919251   0.042541756599199   0.070553059183673   1.0
C16   C   0.859684236471438   0.765779220931115   0.149155091836732   1.0
C17   C   0.875234952707245   0.932105015581620   0.139210214285711   1.0
C18   C   0.921377234524421   0.752334603499861   0.175428585714286   1.0
C19   C   0.590952867047292   0.619202716817469   0.153618365306123   1.0
C20   C   0.702664336714321   0.629394825745024   0.142232661224490   1.0
C21   C   0.527908506311455   0.503447483465166   0.137602046938774   1.0
C22   C   0.569935424015618   0.635498932171238   0.228422436734697   1.0
C23   C   0.619189558570966   0.663780493659580   0.200963273469391   1.0
C24   C   0.862564280992942   0.974377111026676   0.090640828571431   1.0
C25   C   0.219281369202541   0.822565232903408   0.110251018367350   1.0
C26   C   0.830042280021203   0.675175646219358   0.405671412244899   1.0
C27   C   0.278866466005056   0.592012743324666   0.191010222448980   1.0
C28   C   0.156638615314137   0.025541619702359   0.366553093877549   1.0
C29   C   0.104272929150461   0.527173332005582   0.235910222448979   1.0
C30   C   0.927639229819789   0.467513422072336   0.253906093877553   1.0
C31   C   0.021199757854539   0.071253345701947   0.223187738775508   1.0
C32   C   0.067704924308543   0.209008992752267   0.211020412244899   1.0
C33   C   0.094922499753963   0.941283486398255   0.218316332653060   1.0
C34   C   0.914443387641668   0.999584319263477   0.291912234693875   1.0
C35   C   0.024187907993308   0.402161666813143   0.243087771428570   1.0
C36   C   0.920512466799082   0.983232442924653   0.259924518367349   1.0
C37   C   0.824652719680522   0.909927560519485   0.302014255102044   1.0
C38   C   0.136594207771907   0.945727888514959   0.339638769387754   1.0
C39   C   0.027206827426049   0.984846856546703   0.329965318367350   1.0
C40   C   0.226346431488473   0.553839811539056   0.382975520408166   1.0
C41   C   0.188357703720868   0.531049617808307   0.335338748979595   1.0
C42   C   0.168436844352477   0.694791192219981   0.325585734693881   1.0
C43   C   0.231666330456470   0.443241868645202   0.311606116326530   1.0
C44   C   0.280372177040817   0.678294521575623   0.399146957142854   1.0
C45   C   0.253965328094026   0.681747585619839   0.428859165306122   1.0
C46   C   0.536046733623635   0.730424414732596   0.361853075510204   1.0
C47   C   0.429686233348427   0.770513311908807   0.375695910204080   1.0
C48   C   0.554894566948789   0.839652319900175   0.337573461224487   1.0
C49   C   0.725195134847262   0.616429191307262   0.416128587755104   1.0
C50   C   0.646862504124513   0.602071118854859   0.391987781632651   1.0
C51   C   0.603492168932860   0.744648753787637   0.250487736734691   1.0
C52   C   0.584837552875506   0.826931763107652   0.470585726530615   1.0
C53   C   0.393079645278917   0.523452890277682   0.231532661224492   1.0
C54   C   0.489896792298403   0.789337975127552   0.488385726530609   1.0
C55   C   0.624084872167366   0.397338464792725   0.616087777551023   1.0
C56   C   0.647426257815923   0.030649887948435   0.497163267346941   1.0
C57   C   0.727441918730243   0.293097570019839   0.501191820408167   1.0
C58   C   0.901255506101457   0.959116833822272   0.554140830612248   1.0
C59   C   0.873073002508782   0.992054525264820   0.524122432653058   1.0
C60   C   0.958833140041428   0.089958878595446   0.566620418367350   1.0
C61   C   0.650375817005830   0.778254833744974   0.576575532653059   1.0
C62   C   0.762342065692422   0.779168177377315   0.563004085714283   1.0
C63   C   0.578297807757686   0.904202153747072   0.565924508163263   1.0
C64   C   0.529869865421361   0.422746328819969   0.598153095918370   1.0
C65   C   0.528063132630386   0.594251624856319   0.591393840816323   1.0
C66   C   0.300995657290571   0.189684204945152   0.611226530612242   1.0
C67   C   0.893410641036432   0.585752692573699   0.479193863265309   1.0
C68   C   0.418112006314402   0.220443031143304   0.608061187755105   1.0
C69   C   0.247386845323042   0.224796161274504   0.583914310204079   1.0
C70   C   0.143659277779115   0.848741668535212   0.619404073469390   1.0
C71   C   0.172382402113456   0.006058592961139   0.627595940816327   1.0
C72   C   0.034101944376928   0.799552384093545   0.628787761224487   1.0
C73   C   0.168560261264588   0.753849535781590   0.546520389795916   1.0
C74   C   0.161024370871402   0.716511975465949   0.576987753061225   1.0
C75   C   0.273206815349972   0.802782592558806   0.536485710204083   1.0
C76   C   0.988552278389392   0.534079370982973   0.497181638775508   1.0
C77   C   0.112897596994579   0.237907748461360   0.454350997959182   1.0
C78   C   0.042132081514403   0.309023896574161   0.475993877551019   1.0
C79   C   0.080267490405575   0.265924171180977   0.426022432653063   1.0
C80   C   0.053914844832342   0.668948945276128   0.509789759183676   1.0
C81   C   0.743231801560924   0.135044644075457   0.500904083673468   1.0
C82   C   0.375567871063055   0.362217575081345   0.480202032653061   1.0
C83   C   0.270071991808898   0.281900756363392   0.479061204081631   1.0
C84   C   0.428427649545448   0.357483595492454   0.508008138775509   1.0
C85   C   0.489618741346085   0.190294593310014   0.412779593877552   1.0
C86   C   0.430273112268296   0.302538851579207   0.432795932653065   1.0
C87   C   0.450796161851400   0.220208045323659   0.383716351020411   1.0
C88   C   0.743023558685586   0.186860431945732   0.388653034693874   1.0
C89   C   0.834157636412947   0.081492237926930   0.381610169387756   1.0
C90   C   0.718438900528888   0.405492147479222   0.325793910204084   1.0
C91   C   0.768032647788317   0.311160367239971   0.347985716326534   1.0
C92   C   0.797612756799488   0.498045126500365   0.310155128571431   1.0
C93   C   0.661733701543596   0.109698077306724   0.407261208163263   1.0
C94   C   0.569966355456430   0.300482580851842   0.305395942857146   1.0
C95   C   0.427199997183280   0.110587004513363   0.289516293877554   1.0
C96   C   0.656390685068409   0.212720512237006   0.216840822448980   1.0
C97   C   0.649171428855134   0.183376234730964   0.247600010204081   1.0
C98   C   0.545196432948565   0.934154591841903   0.097730597959185   1.0
C99   C   0.756643831809740   0.174784782908233   0.203873461224489   1.0
C100   C   0.435917297202984   0.053982534012853   0.176877546938776   1.0
C101   C   0.486954892616552   0.155353017294338   0.197163251020406   1.0
C102   C   0.315079253439485   0.071928372989419   0.179691820408166   1.0
C103   C   0.563187142613877   0.079703300327715   0.111916328571425   1.0
C104   C   0.568391137473547   0.072268086562019   0.143436742857141   1.0
C105   C   0.537042886620270   0.169443712063064   0.286875510204084   1.0
H106   H   0.084714946697623   0.370582974466458   0.159646948979592   1.0
H107   H   0.043004663173363   0.552068662731749   0.148144897959185   1.0
H108   H   0.059844740227398   0.286657035990722   0.024181638775509   1.0
H109   H   0.165850169799406   0.180317487050772   0.014285730612244   1.0
H110   H   0.246051095064885   0.919573752921586   0.121781640816323   1.0
H111   H   0.109909454577085   0.706475810863147   0.067991840816326   1.0
H112   H   0.193863013744320   0.762081201769341   0.041171442857141   1.0
H113   H   0.213011722120399   0.616885863123436   0.067110218367347   1.0
H114   H   0.958470263125875   0.410616088129927   0.160932657142858   1.0
H115   H   0.057119183041813   0.100540848334901   0.032920410204085   1.0
H116   H   0.694186203289490   0.487296062416938   0.061583655102041   1.0
H117   H   0.562106171375284   0.697988028599745   0.268363253061224   1.0
H118   H   0.736800146617810   0.614747164681553   0.035728571428571   1.0
H119   H   0.825123694492056   0.050854736413434   0.050971440816326   1.0
H120   H   0.768071238737186   0.152753180345265   0.075755100000002   1.0
H121   H   0.722044698881497   0.980046745425234   0.067553073469391   1.0
H122   H   0.001556810455448   0.788246364854245   0.171538761224490   1.0
H123   H   0.915339102250371   0.640723044772841   0.181673477551023   1.0
H124   H   0.893572934584697   0.823857398717223   0.191336728571429   1.0
H125   H   0.566947281598125   0.393963473160809   0.131122434693879   1.0
H126   H   0.487032066793013   0.546889172484782   0.119620420408161   1.0
H127   H   0.461220057403999   0.487730534444594   0.151297977551018   1.0
H128   H   0.138347030597899   0.808819876841852   0.117326542857143   1.0
H129   H   0.778023850627115   0.451718489750505   0.033824493877553   1.0
H130   H   0.687916556207348   0.732730218657338   0.254332640816330   1.0
H131   H   0.162128467338462   0.144605122793344   0.363979573469386   1.0
H132   H   0.804121871606355   0.772184077126497   0.393053093877548   1.0
H133   H   0.321294998277921   0.512536832100203   0.178279604081631   1.0
H134   H   0.315264664494940   0.698712089238470   0.186061236734694   1.0
H135   H   0.954478315924966   0.505563881868611   0.273510212244901   1.0
H136   H   0.874315973887072   0.372398522850801   0.253108200000000   1.0
H137   H   0.891982397585700   0.554251861000587   0.242224481632654   1.0
H138   H   0.167757333257029   0.967994465758693   0.229428583673467   1.0
H139   H   0.124788465929789   0.925622198362738   0.196506112244897   1.0
H140   H   0.061389026769469   0.836444322362318   0.227255102040814   1.0
H141   H   0.470763549642733   0.881545604302637   0.106612263265305   1.0
H142   H   0.846550264896209   0.792434639556411   0.298644865306123   1.0
H143   H   0.750775644870735   0.932550537378575   0.290644897959183   1.0
H144   H   0.232160430496471   0.989392589057857   0.375438767346935   1.0
H145   H   0.098003274347043   0.994226896541967   0.381838740816328   1.0
H146   H   0.180860396555275   0.445837149792212   0.292804095918370   1.0
H147   H   0.243333197387358   0.321932711583308   0.317020416326528   1.0
H148   H   0.307574294487111   0.480668450892523   0.304081665306121   1.0
H149   H   0.278117594666774   0.785550811506418   0.439920387755102   1.0
H150   H   0.283337194229851   0.579136141957456   0.436485679591840   1.0
H151   H   0.177972545821426   0.665005859608002   0.434520410204080   1.0
H152   H   0.494514054942485   0.817207487154363   0.321797975510201   1.0
H153   H   0.633945006307279   0.817107203814665   0.328516357142860   1.0
H154   H   0.552276960954899   0.958080895672914   0.341540824489798   1.0
H155   H   0.199167446991922   0.590653766506570   0.182932640816325   1.0
H156   H   0.587200379849833   0.858387860937320   0.244924506122452   1.0
H157   H   0.867443982164652   0.609166552214674   0.391179610204084   1.0
H158   H   0.625366720181816   0.279328744337413   0.623040804081633   1.0
H159   H   0.454587232276452   0.898064574985440   0.492106144897960   1.0
H160   H   0.924519717573553   0.650558642696240   0.462793857142856   1.0
H161   H   0.491827227688773   0.726314223581610   0.507822465306120   1.0
H162   H   0.432627986325990   0.734323011712647   0.475548959183676   1.0
H163   H   0.783413403246520   0.359187821906680   0.510385708163263   1.0
H164   H   0.657255468236308   0.319233738599216   0.513904104081632   1.0
H165   H   0.972924395698399   0.077972351739554   0.588775481632652   1.0
H166   H   0.926179776962229   0.208835203941206   0.562918371428573   1.0
H167   H   0.034704281295930   0.081217107582539   0.559436720408165   1.0
H168   H   0.544964918140472   0.862531524423723   0.546718365306120   1.0
H169   H   0.610495530484016   0.016593434097871   0.562177540816329   1.0
H170   H   0.528958847239096   0.918103442994493   0.583646969387758   1.0
H171   H   0.709582571172390   0.338633223737887   0.481287742857141   1.0
H172   H   0.693298441597420   0.418747459639100   0.604340844897962   1.0
H173   H   0.634346466450424   0.476814376017188   0.632046914285716   1.0
H174   H   0.294270501117289   0.907677417579805   0.546806102040819   1.0
H175   H   0.335085077754123   0.718194002091657   0.541287791836737   1.0
H176   H   0.277777835258405   0.818276775111464   0.514291802040816   1.0
H177   H   0.017501180622055   0.806313628765402   0.651614285714288   1.0
H178   H   0.020110980403594   0.680477730983341   0.625291863265304   1.0
H179   H   0.969218151236582   0.845344265476051   0.617049004081636   1.0
H180   H   0.283398902685903   0.169043870814384   0.567218391836732   1.0
H181   H   0.165881093518934   0.204906565400876   0.585053034693878   1.0
H182   H   0.637574076592642   0.136426890014583   0.105712228571427   1.0
H183   H   0.847994113050355   0.492208386618955   0.470755128571426   1.0
H184   H   0.794663197609580   0.918771731259362   0.323355073469386   1.0
H185   H   0.424590189680458   0.067788062305993   0.309669416326528   1.0
H186   H   0.060871662517997   0.383470625602961   0.421750983673469   1.0
H187   H   0.007865048486465   0.212124582138827   0.421914314285715   1.0
H188   H   0.136648256719901   0.222488129573691   0.411059165306121   1.0
H189   H   0.448448939580487   0.242502458629360   0.512761253061221   1.0
H190   H   0.375845759868525   0.401738344804713   0.523810173469386   1.0
H191   H   0.497540788308847   0.427090447596967   0.507667387755099   1.0
H192   H   0.461111959508010   0.333439174974323   0.381416320408164   1.0
H193   H   0.367962311575908   0.205053576343602   0.381022473469386   1.0
H194   H   0.503470830408190   0.177425844853445   0.367855071428572   1.0
H195   H   0.864548626348302   0.019322448642242   0.399222471428573   1.0
H196   H   0.898452628035123   0.133199989796786   0.372428583673468   1.0
H197   H   0.809434257770583   0.997623876323672   0.367618406122446   1.0
H198   H   0.764828317300122   0.555956198803621   0.292167353061224   1.0
H199   H   0.863869115252847   0.430365256139112   0.304657138775511   1.0
H200   H   0.832922324542714   0.583747627279251   0.322863287755105   1.0
H201   H   0.885017626983412   0.703546341028186   0.421275548979594   1.0
H202   H   0.393519835353935   0.028883306082065   0.275759171428568   1.0
H203   H   0.364850605542024   0.193801090563220   0.287271461224492   1.0
H204   H   0.816607271248216   0.244762582005826   0.212422469387754   1.0
H205   H   0.737857853644933   0.202813525229509   0.183120416326531   1.0
H206   H   0.775615074325721   0.053757539768867   0.206416344897960   1.0
H207   H   0.268581746493538   0.997445721071522   0.167220408163267   1.0
H208   H   0.292687623626350   0.189533785505041   0.177091832653062   1.0
H209   H   0.289259283412562   0.036948924780589   0.199606136734694   1.0
H210   H   0.839578120473156   0.654267934404913   0.490589765306126   1.0
H211   H   0.258474639546407   0.344907821866577   0.578957148979590   1.0
H212   H   0.672165248882976   0.067195462733039   0.251850985714284   1.0
H213   H   0.053320306404416   0.240137707749867   0.493942883673469   1.0
H214   H   0.254235572833991   0.727082784047298   0.118697965306126   1.0
H215   H   0.314739494031123   0.861261770037146   0.075822440816324   1.0
H216   H   0.212363134744478   0.326949663288353   0.053755118367349   1.0
H217   H   0.279013154849913   0.122665928381679   0.085020416326529   1.0
H218   H   0.292239766321998   0.070820032117851   0.051295922448979   1.0
H219   H   0.963666598477488   0.275816722199558   0.120983669387755   1.0
H220   H   0.157626954377143   0.270076756910534   0.115248973469384   1.0
H221   H   0.156322127838514   0.433484142634256   0.096914291836733   1.0
H222   H   0.603662114267905   0.851659977212080   0.101481653061228   1.0
H223   H   0.905942283413935   0.353529337527341   0.074432646938774   1.0
H224   H   0.806924741951406   0.411373498576395   0.095481638775510   1.0
H225   H   0.932387854571331   0.038931678897711   0.091408165306120   1.0
H226   H   0.962709337559573   0.779691682475523   0.092328559183670   1.0
H227   H   0.885774304534038   0.682627479194522   0.133308177551022   1.0
H228   H   0.958539777794272   0.944970478068491   0.134944916326532   1.0
H229   H   0.841423428770440   0.013184981269418   0.154322448979592   1.0
H230   H   0.549798376576533   0.727494956036509   0.152640830612242   1.0
H231   H   0.703683452792575   0.672346348335289   0.122197951020411   1.0
H232   H   0.751053695823053   0.526215366018597   0.144626538775512   1.0
H233   H   0.587517014029736   0.529144835853558   0.236206132653059   1.0
H234   H   0.703675801005794   0.660227257664467   0.201046926530616   1.0
H235   H   0.603847386340348   0.781551942325549   0.196561230612247   1.0
H236   H   0.270805551852348   0.678238749201761   0.231718375510205   1.0
H237   H   0.422466830430864   0.430309606292930   0.219816324489798   1.0
H238   H   0.393457987914871   0.498111937504646   0.253979585714283   1.0
H239   H   0.941483358243978   0.843595528095989   0.061071436734693   1.0
H240   H   0.113963110234046   0.688809557783109   0.309181602040816   1.0
H241   H   0.014404940308573   0.104103017712042   0.331849002040819   1.0
H242   H   0.193631352231947   0.960754249232224   0.323346975510205   1.0
H243   H   0.936534142403872   0.866485882638749   0.255697989795920   1.0
H244   H   0.848588790461292   0.011234852932809   0.249479567346938   1.0
H245   H   0.079356472223310   0.571862453095569   0.216724473469391   1.0
H246   H   0.150376774444332   0.211303646657783   0.216773481632650   1.0
H247   H   0.073295206999518   0.205402223298236   0.188259202040818   1.0
H248   H   0.950803002903960   0.039510889536501   0.212055089795918   1.0
H249   H   0.969125665765290   0.940470314716812   0.343348989795920   1.0
H250   H   0.908467403936527   0.109367274838391   0.300744893877550   1.0
H251   H   0.108650870774106   0.491863036772898   0.340391820408165   1.0
H252   H   0.549435499660980   0.899601818444495   0.454673455102039   1.0
H253   H   0.245008707053884   0.716122114654056   0.316983671428574   1.0
H254   H   0.259578736013466   0.786686932745560   0.389293904081633   1.0
H255   H   0.141319715016266   0.577320582434233   0.385497971428571   1.0
H256   H   0.244035825989997   0.447808742751235   0.392371430612243   1.0
H257   H   0.524040261709949   0.618189078706550   0.354808185714283   1.0
H258   H   0.370479479181867   0.776071613198368   0.361195934693875   1.0
H259   H   0.430450578128394   0.888585376677391   0.383406114285712   1.0
H260   H   0.742923120297654   0.510632050145460   0.426414257142859   1.0
H261   H   0.576413615102958   0.544460874292945   0.398004104081636   1.0
H262   H   0.685206464742166   0.542856830968496   0.376675508163267   1.0
H263   H   0.102141902671526   0.618835167182901   0.251310232653061   1.0
H264   H   0.055242796599430   0.321176448441520   0.256981597959182   1.0
H265   H   0.549844912720758   0.617220062950267   0.447114285714285   1.0
H266   H   0.912096173092031   0.593705819719673   0.051948975510207   1.0
H267   H   0.787737303643453   0.117588893556082   0.481377583673471   1.0
H268   H   0.604820259682960   0.100961875733979   0.480781632653063   1.0
H269   H   0.603986407955873   0.033231880411201   0.516061200000003   1.0
H270   H   0.947567740974954   0.860214681868563   0.555246936734697   1.0
H271   H   0.837817638139114   0.897351675504808   0.513977518367348   1.0
H272   H   0.944062381010276   0.026238902472755   0.511893914285714   1.0
H273   H   0.664003749638049   0.798026301792589   0.597920397959186   1.0
H274   H   0.751362377086323   0.763495839572499   0.541848942857143   1.0
H275   H   0.812754345662817   0.690034912592651   0.572383646938775   1.0
H276   H   0.547119208830878   0.348238302532657   0.580914322448983   1.0
H277   H   0.536293860856418   0.665640664398566   0.609810187755102   1.0
H278   H   0.454108590235577   0.616885863123436   0.579953095918370   1.0
H279   H   0.274249203360974   0.263033698566083   0.625749004081634   1.0
H280   H   0.440426461951077   0.163840899807667   0.589324485714286   1.0
H281   H   0.457158587813410   0.168567115596964   0.625430593877553   1.0
H282   H   0.447653678802268   0.184962444707992   0.120932636734693   1.0
H283   H   0.159109540184446   0.003389706092847   0.648720410204085   1.0
H284   H   0.116557452016465   0.074371151725700   0.620077561224491   1.0
H285   H   0.118171253226933   0.847293558396636   0.544193891836734   1.0
H286   H   0.225867665907145   0.653566184943507   0.583732683673468   1.0
H287   H   0.099246400150889   0.646459601564480   0.581791859183674   1.0
H288   H   0.959072607766153   0.469496176189466   0.514134700000000   1.0
H289   H   0.003871479817114   0.756300022623066   0.516404055102043   1.0
H290   H   0.095223668213457   0.712869606150356   0.491942891836736   1.0
H291   H   0.123815584865902   0.116087350208517   0.458865340816324   1.0
H292   H   0.963990892165448   0.292782284011821   0.468144865306122   1.0
H293   H   0.208108749015942   0.778210211390331   0.628502048979591   1.0
H294   H   0.360534511357436   0.475132460780280   0.473663253061225   1.0
H295   H   0.661672147513109   0.611973639171346   0.470022473469385   1.0
H296   H   0.226964102866141   0.302865187356524   0.496793863265303   1.0
H297   H   0.289213040676913   0.163007644724964   0.481973453061222   1.0
H298   H   0.462409118817298   0.078332104157887   0.417493859183672   1.0
H299   H   0.352365352604451   0.311044478328917   0.426553065306123   1.0
H300   H   0.769167814679193   0.290641346654986   0.398332634693880   1.0
H301   H   0.704772091260509   0.055573143847610   0.425314302040817   1.0
H302   H   0.617730391400706   0.028918939360267   0.394650985714286   1.0
H303   H   0.657888736596114   0.484500225729413   0.334122483673468   1.0
H304   H   0.825463600604714   0.385887762636699   0.358102059183672   1.0
H305   H   0.814916295861288   0.231419306107902   0.336834732653060   1.0
H306   H   0.454409920841918   0.420418224856789   0.429126506122451   1.0
H307   H   0.546540136123355   0.276785737955834   0.326965332653060   1.0
H308   H   0.577463662622016   0.069131422413854   0.291797948979592   1.0
H309   H   0.613753770937194   0.984780836402933   0.150826512244897   1.0
H310   H   0.609746504720164   0.170280264254345   0.150238777551017   1.0
H311   H   0.535599038466124   0.953614193517772   0.076491842857145   1.0
H312   H   0.443553633705370   0.162736969932709   0.215597971428572   1.0
H313   H   0.488707723163820   0.266642706935059   0.187446944897957   1.0
H314   H   0.464300677571508   0.943043384936423   0.183702040816328   1.0
H315   H   0.708640621549314   0.253601339249862   0.258075481632652   1.0
H316   H   0.635134075441862   0.324900198416877   0.210430612244899   1.0
H317   H   0.523708316235208   0.392114352191122   0.300859179591839   1.0
O318   O   0.484499580170933   0.179761601227419   0.103544897959182   1.0
O319   O   0.076206190683116   0.265513179913078   0.076463271428572   1.0
O320   O   0.957026414971729   0.488499094910281   0.104942867346942   1.0
O321   O   0.820035457036440   0.712702511806377   0.079442861224493   1.0
O322   O   0.753030080540498   0.742465544379918   0.158210210204082   1.0
O323   O   0.167286358445487   0.970088552984812   0.069946951020405   1.0
O324   O   0.593678570937165   0.560166673294297   0.180148961224489   1.0
O325   O   0.002398468394887   0.075720047857082   0.250659165306125   1.0
O326   O   0.209444506995375   0.469006032037868   0.232177540816323   1.0
O327   O   0.001510421015517   0.333711008210137   0.216673481632654   1.0
O328   O   0.008853387549472   0.945549633012881   0.302314291836737   1.0
O329   O   0.142107177303423   0.789661013796284   0.346355126530611   1.0
O330   O   0.589694283244313   0.110482254482648   0.201918351020410   1.0
O331   O   0.262327565131798   0.545173784912457   0.356069371428575   1.0
O332   O   0.463582583248467   0.641591888578226   0.223261232653059   1.0
O333   O   0.393820864830424   0.667835046103271   0.396575538775508   1.0
O334   O   0.808932351518237   0.920431446707752   0.568653028571426   1.0
O335   O   0.691059332665048   0.727918166656139   0.434983702040817   1.0
O336   O   0.621034874589533   0.740750167946466   0.380514261224491   1.0
O337   O   0.800933145821574   0.115507025681694   0.524430644897961   1.0
O338   O   0.604125437292666   0.635743998677590   0.573661259183673   1.0
O339   O   0.435971346150971   0.376408553189769   0.609657134693876   1.0
O340   O   0.278789299549878   0.040405341627789   0.620499981632655   1.0
O341   O   0.148369164877508   0.854723191583282   0.590338804081632   1.0
O342   O   0.122078220039043   0.634195616338197   0.531869381632653   1.0
O343   O   0.593941009464793   0.233729565584781   0.414302046938772   1.0
O344   O   0.206881096653774   0.313407001432346   0.454969367346941   1.0
O345   O   0.442426412009851   0.282397483593265   0.462612230612244   1.0
O346   O   0.692827474507155   0.241593570549156   0.364444889795919   1.0
O347   O   0.683276315039087   0.316013532848501   0.304365277551021   1.0
O348   O   0.668675207934413   0.887014794549479   0.486636726530612   1.0
O349   O   0.547335404622856   0.194516217819917   0.257649014285711   1.0
O350   O   0.063527712756468   0.457622152024996   0.480820404081634   1.0
O351   O   0.812738733238128   0.961857009524742   0.116630593877552   1.0
O352   O   0.459914929735518   0.076937527478222   0.150716314285717   1.0


# Number_of_total_atoms: 352
# Number_of_atom_type: 3
# Name_of_each_atom: C H O
# Number_of_each_atom: 105 212 35
# Created_by: Lihua Chen (lihua.chen@mse.gatech.edu)
# Tool: VASP
# K-points: 1 2 1
# Pseudopotential: PBE-HSE06
# Material_class: MC_Pol
# Geometry_class: GC_PD
# Bandgap_(eV): 4.71
