#======================================================================

# Note: Disordered slab of isotactic polyvinyl alcohol
# Common_name: Disordered slab-1

#----------------------------------------------------------------------

data_1
_audit_creation_method   'vasp2cif'
_cell_length_a    12.3763638
_cell_length_b    22.9834672
_cell_length_c    30.0
_cell_angle_alpha    90.0
_cell_angle_beta    90.0
_cell_angle_gamma    90.0

_symmetry_space_group_name_H-M    'P 1'
loop_
_atom_site_label
_atom_site_type_symbol
_atom_site_fract_x
_atom_site_fract_y
_atom_site_fract_z
_atom_site_occupancy
C1   C   0.669169186833372   0.064713099510065   0.552146656666665   1.0
C2   C   0.583909855655662   0.167904684111370   0.546063359999998   1.0
C3   C   0.619671587223380   0.118712798041194   0.578903326666669   1.0
C4   C   0.550935703748465   0.277944748040454   0.537513349999998   1.0
C5   C   0.529402682878469   0.223083469320940   0.565623346666669   1.0
C6   C   0.610096909077605   0.385978839606935   0.544696680000001   1.0
C7   C   0.527794827750618   0.338666630768401   0.559003323333336   1.0
C8   C   0.669516558651907   0.491058720679014   0.563416673333336   1.0
C9   C   0.581445440380477   0.444090250229955   0.567009990000003   1.0
C10   C   0.842733735735855   0.535621205141751   0.594226710000001   1.0
C11   C   0.018202503064757   0.579169913058202   0.625213369999997   1.0
C12   C   0.049520255699015   0.911778593614457   0.512469990000000   1.0
C13   C   0.936153783714730   0.529468987168308   0.627633286666665   1.0
C14   C   0.221097379183377   0.597191558634812   0.632563273333332   1.0
C15   C   0.121617336426389   0.566704474423247   0.651383336666669   1.0
C16   C   0.303043766376682   0.698812505538761   0.618836719999997   1.0
C17   C   0.204743601670792   0.664439932718246   0.631016666666667   1.0
C18   C   0.215716089405838   0.775001997957908   0.562513353333330   1.0
C19   C   0.277196223013419   0.761809915259434   0.607880020000003   1.0
C20   C   0.120033680651822   0.854232824366903   0.509359996666667   1.0
C21   C   0.192478278636251   0.840631778133108   0.551806640000002   1.0
C22   C   0.974048734734190   0.923874240349605   0.471730043333331   1.0
C23   C   0.281421979531665   0.026707650097286   0.528406653333334   1.0
C24   C   0.779880315088995   0.956750050314426   0.455656686666664   1.0
C25   C   0.714594378681724   0.014459637317039   0.580849966666669   1.0
C26   C   0.275273202618685   0.338288041240361   0.632883326666665   1.0
C27   C   0.139603305778714   0.435192458690480   0.536526616666670   1.0
C28   C   0.602340131598268   0.903503049357148   0.441793316666668   1.0
C29   C   0.716404280229703   0.900544366082414   0.462650046666667   1.0
C30   C   0.540755047940657   0.794720576362820   0.458756639999997   1.0
C31   C   0.551913389940914   0.846370720776193   0.426160050000000   1.0
C32   C   0.465135123128817   0.690184429614696   0.471976726666668   1.0
C33   C   0.470007224577543   0.744192921423100   0.441886646666667   1.0
C34   C   0.362722167232995   0.593210462170823   0.482023366666667   1.0
C35   C   0.391365467133412   0.642785249564085   0.451600013333333   1.0
C36   C   0.265148960795742   0.488395971866247   0.478676606666667   1.0
C37   C   0.243397871028968   0.026720598535284   0.477966690000002   1.0
C38   C   0.293646927217829   0.546280998021047   0.455653383333335   1.0
C39   C   0.173320745468068   0.492725118514755   0.513460033333331   1.0
C40   C   0.206165602533439   0.414081675196506   0.577750016666670   1.0
C41   C   0.251178839781680   0.283157216592627   0.656173326666668   1.0
C42   C   0.881921392776121   0.965303933777236   0.484716669999997   1.0
C43   C   0.337351137011666   0.196986445108685   0.706060026666670   1.0
C44   C   0.345705868794838   0.259009415254802   0.687353389999998   1.0
C45   C   0.290633109863819   0.132683801511028   0.633973313333335   1.0
C46   C   0.358706318894733   0.142764834889661   0.675756710000002   1.0
C47   C   0.254039162940572   0.081072833084121   0.557956696666665   1.0
C48   C   0.305734411265448   0.076678287251632   0.606023280000002   1.0
C49   C   0.201220757586327   0.349905178797393   0.592783356666665   1.0
C50   C   0.584952116549772   0.558459299822267   0.697906619999998   1.0
C51   C   0.767348217414231   0.483966744582382   0.597163393333332   1.0
C52   C   0.986960257260698   0.232942760698876   0.554180019999997   1.0
C53   C   0.612124871442454   0.733041348957130   0.668209966666666   1.0
C54   C   0.599399049662715   0.087412102904999   0.406420009999998   1.0
C55   C   0.479727397799991   0.099364181223272   0.407926686666670   1.0
C56   C   0.705787171511552   0.186613793414075   0.418513363333332   1.0
C57   C   0.670841616662884   0.140036860931062   0.385423343333336   1.0
C58   C   0.760682244974085   0.296079422690411   0.428579966666668   1.0
C59   C   0.746711978521510   0.244168194953630   0.395523326666670   1.0
C60   C   0.860751919719746   0.389255194707957   0.448440043333335   1.0
C61   C   0.829062757512027   0.347368572832217   0.409806696666664   1.0
C62   C   0.945413458191979   0.482143668906488   0.405119960000000   1.0
C63   C   0.584895557126401   0.625742533746170   0.703683343333331   1.0
C64   C   0.858408800167943   0.454240994587622   0.435669963333332   1.0
C65   C   0.946803244423052   0.547351376123096   0.411673356666668   1.0
C66   C   0.858481543666322   0.648619795711241   0.472853343333334   1.0
C67   C   0.847274811039412   0.642550228452912   0.421423339999997   1.0
C68   C   0.853068192775652   0.728686144447344   0.534663389999999   1.0
C69   C   0.855904171142740   0.715789830874606   0.484426626666668   1.0
C70   C   0.850288628393422   0.803513801433752   0.598093286666668   1.0
C71   C   0.838936416849670   0.793176005228666   0.547573343333333   1.0
C72   C   0.665517039827158   0.773074521149709   0.633309939999997   1.0
C73   C   0.785972370980240   0.759251567578978   0.627743276666664   1.0
C74   C   0.417511983608627   0.054005507054221   0.435756683333331   1.0
C75   C   0.843145835774479   0.579570248652473   0.408720016666663   1.0
C76   C   0.480430302153849   0.463991403351017   0.718753306666670   1.0
C77   C   0.627016272744015   0.664909809604360   0.663066613333335   1.0
C78   C   0.726269924289070   0.295239749553538   0.686376699999997   1.0
C79   C   0.270982725960266   0.460806496593342   0.733190026666669   1.0
C80   C   0.383455195458943   0.434718265658368   0.743243280000002   1.0
C81   C   0.063619671554903   0.426455830824338   0.728723273333330   1.0
C82   C   0.183202420084001   0.416405171452979   0.745323310000003   1.0
C83   C   0.895059451953088   0.363023234370836   0.707756680000003   1.0
C84   C   0.974089110082559   0.381619153614906   0.743330003333334   1.0
C85   C   0.514414500323589   0.527006403977204   0.730856706666664   1.0
C86   C   0.806955981691488   0.317795019195366   0.723043316666669   1.0
C87   C   0.871934614591730   0.263247100507101   0.624009960000002   1.0
C88   C   0.897596449128294   0.218906523381293   0.585216650000000   1.0
C89   C   0.767534079759358   0.247331359996025   0.653379950000001   1.0
C90   C   0.108317759696107   0.196564537486317   0.489490000000003   1.0
C91   C   0.999451971507170   0.194132328302494   0.511826706666668   1.0
C92   C   0.252811047781258   0.259353149293332   0.447559993333336   1.0
C93   C   0.132581800803237   0.254984670024022   0.465166726666666   1.0
C94   C   0.376167069361678   0.342399757683211   0.415113323333330   1.0
C95   C   0.262119112885159   0.320031539888809   0.426509986666666   1.0
C96   C   0.476697396370973   0.417531981423586   0.370196659999998   1.0
C97   C   0.374397559321906   0.381627946892188   0.373953309999997   1.0
C98   C   0.557827913882107   0.510107256576156   0.331000013333330   1.0
C99   C   0.464415881181516   0.464591904566951   0.332753313333335   1.0
C100   C   0.301452095323832   0.071287399144026   0.444573339999998   1.0
H101   H   0.443868715300695   0.218532415335488   0.572116723333330   1.0
H102   H   0.536399988500662   0.335146617913246   0.594886653333333   1.0
H103   H   0.637188751675190   0.278214459304905   0.528499986666667   1.0
H104   H   0.553270808021978   0.228731124605950   0.599769973333331   1.0
H105   H   0.690661678836555   0.372269076094838   0.552476630000001   1.0
H106   H   0.560437646475776   0.101235056475723   0.601053366666669   1.0
H107   H   0.688350919354846   0.137622077316514   0.597109986666666   1.0
H108   H   0.603867227949458   0.050237529000846   0.532180026666666   1.0
H109   H   0.787854999866759   0.030205755900923   0.597019959999997   1.0
H110   H   0.659877305804471   0.182985067631570   0.529916640000003   1.0
H111   H   0.436410919013227   0.704003067039423   0.504976653333330   1.0
H112   H   0.137874171087312   0.520571195628833   0.648046620000002   1.0
H113   H   0.571297152722678   0.426495002459852   0.600616709999997   1.0
H114   H   0.504379177994103   0.461689818497014   0.556430053333337   1.0
H115   H   0.697618455591943   0.501888305172685   0.529353333333333   1.0
H116   H   0.808976074216567   0.442423852394214   0.589583333333330   1.0
H117   H   0.735303361072823   0.479907309198325   0.632586673333336   1.0
H118   H   0.799813189072545   0.574679772423544   0.601126606666668   1.0
H119   H   0.982379113645642   0.489527263319090   0.623529943333331   1.0
H120   H   0.895301720203150   0.526314615403194   0.658450063333333   1.0
H121   H   0.038313369553663   0.580109666830424   0.589339956666663   1.0
H122   H   0.736725200337112   0.976129206475861   0.561903379999997   1.0
H123   H   0.447916778270532   0.353090085555067   0.551633326666668   1.0
H124   H   0.106128134339428   0.574205414055193   0.687106706666668   1.0
H125   H   0.729372499538194   0.991757810153203   0.464696633333332   1.0
H126   H   0.171866384535335   0.680621072698727   0.662456640000002   1.0
H127   H   0.366519647717531   0.700835585851031   0.642470043333333   1.0
H128   H   0.355070347883597   0.785922865458701   0.606740060000000   1.0
H129   H   0.232902058034199   0.779935961968349   0.635680006666668   1.0
H130   H   0.140395137705958   0.753677935068040   0.559980013333330   1.0
H131   H   0.273212726665321   0.858109519698580   0.546496710000000   1.0
H132   H   0.167139608485009   0.860154507062362   0.584066646666663   1.0
H133   H   0.074616504081753   0.816827710833813   0.497930019999998   1.0
H134   H   0.103688071935956   0.947974081125587   0.521790060000001   1.0
H135   H   0.005285736671702   0.908645802579343   0.542216619999998   1.0
H136   H   0.942674269158118   0.879785948918972   0.461543273333334   1.0
H137   H   0.908666017073607   0.009677961034527   0.487653350000002   1.0
H138   H   0.869769334026849   0.955318508253619   0.518950016666665   1.0
H139   H   0.704615615775616   0.890850554523816   0.496836726666665   1.0
H140   H   0.760706597845804   0.861516338144142   0.452636720000001   1.0
H141   H   0.588151788168993   0.929695838058763   0.412373353333337   1.0
H142   H   0.599083892475754   0.826408497670009   0.397400033333334   1.0
H143   H   0.470904160073253   0.854137059877544   0.414656703333335   1.0
H144   H   0.618386912640688   0.777777941180261   0.464986673333335   1.0
H145   H   0.501308793136801   0.731366318829387   0.408599979999998   1.0
H146   H   0.390824064173032   0.764394325152125   0.434423320000001   1.0
H147   H   0.942528782161368   0.727254602386537   0.472120029999999   1.0
H148   H   0.230865934952561   0.580492572504468   0.599713393333332   1.0
H149   H   0.429009682149129   0.623484432322726   0.423056666666668   1.0
H150   H   0.367319648441495   0.021055678666272   0.527093379999997   1.0
H151   H   0.319704677718022   0.607094329092348   0.512846629999999   1.0
H152   H   0.264413688291874   0.986297376402810   0.465616606666664   1.0
H153   H   0.243567549299094   0.457669554748470   0.453686650000002   1.0
H154   H   0.102007327871213   0.517360226658923   0.502379990000001   1.0
H155   H   0.200962151742822   0.522324725661932   0.539463296666668   1.0
H156   H   0.143942181143707   0.401733747117149   0.507843273333336   1.0
H157   H   0.200380381513995   0.441997463289610   0.606386693333334   1.0
H158   H   0.121924324816632   0.338196753882286   0.605259959999998   1.0
H159   H   0.267783046261130   0.373931157784583   0.656606676666669   1.0
H160   H   0.363901746327137   0.341659999845454   0.621626663333330   1.0
H161   H   0.239261034004187   0.247914431291726   0.629720053333337   1.0
H162   H   0.337973290668785   0.534803278071116   0.424840036666666   1.0
H163   H   0.287732411356558   0.425037402537768   0.564660013333331   1.0
H164   H   0.420752038656133   0.262146348397771   0.669036609999999   1.0
H165   H   0.252423147095918   0.189694303390397   0.715966670000000   1.0
H166   H   0.341051836242890   0.106251675552244   0.698559953333330   1.0
H167   H   0.442147741326089   0.138818598266148   0.666096626666665   1.0
H168   H   0.318411826258696   0.166403596407768   0.612393316666669   1.0
H169   H   0.275652942587222   0.036423203371157   0.623553340000001   1.0
H170   H   0.390872616398042   0.075138036614426   0.604783376666667   1.0
H171   H   0.273107776615291   0.119356787038640   0.536886723333332   1.0
H172   H   0.338248072507369   0.291737166618617   0.716586686666666   1.0
H173   H   0.789705276763115   0.737618621789146   0.464693326666669   1.0
H174   H   0.256438841915752   0.986519283739746   0.545303346666664   1.0
H175   H   0.144895676062788   0.673298391636926   0.603909936666668   1.0
H176   H   0.216831085718411   0.567191776878644   0.445116679999998   1.0
H177   H   0.254596588377595   0.071283082998029   0.413143286666667   1.0
H178   H   0.472035348540743   0.145075217371904   0.423679989999997   1.0
H179   H   0.436976505167053   0.105385944554094   0.376303356666668   1.0
H180   H   0.616253693188945   0.083404787594446   0.440453339999998   1.0
H181   H   0.612690457596280   0.158097673792227   0.360593350000002   1.0
H182   H   0.741460137104241   0.122741859417971   0.366549999999997   1.0
H183   H   0.632728742185165   0.199797243820548   0.433573276666664   1.0
H184   H   0.692576675873084   0.254562758050710   0.364536666666666   1.0
H185   H   0.830080819052846   0.239756393239048   0.380370013333334   1.0
H186   H   0.781350852016807   0.368775286437199   0.383003363333330   1.0
H187   H   0.899107361404489   0.329834234061956   0.393786686666665   1.0
H188   H   0.798754736023518   0.281225258302193   0.459413273333332   1.0
H189   H   0.803158339608601   0.380862135544106   0.476323319999999   1.0
H190   H   0.778482206542762   0.465366343856076   0.423136650000004   1.0
H191   H   0.920753654639661   0.470844207526703   0.372563363333335   1.0
H192   H   0.003303086484898   0.567883565452647   0.387170030000000   1.0
H193   H   0.985400946277935   0.559477562201756   0.443110019999999   1.0
H194   H   0.783718017403466   0.562823462945573   0.432559966666666   1.0
H195   H   0.768657244868642   0.657343475139385   0.410136666666666   1.0
H196   H   0.902880650615650   0.667167911027803   0.402293396666664   1.0
H197   H   0.939353455333951   0.632068863830952   0.484136710000001   1.0
H198   H   0.315987802491712   0.660519753956009   0.438919956666666   1.0
H199   H   0.459664905777899   0.047835859160536   0.468636703333331   1.0
H200   H   0.859806593597384   0.476517920672997   0.468659973333331   1.0
H201   H   0.297614085972491   0.115358265005376   0.460553359999999   1.0
H202   H   0.563839356435210   0.012780212726128   0.384929976666669   1.0
H203   H   0.516822348095488   0.888570546048854   0.494910053333335   1.0
H204   H   0.903252367225988   0.814943721807126   0.529743326666669   1.0
H205   H   0.837813243660470   0.847158278190506   0.607660039999999   1.0
H206   H   0.830856313386647   0.755644583511753   0.659836706666667   1.0
H207   H   0.800855595405167   0.714906674307173   0.618536633333335   1.0
H208   H   0.659093489155516   0.820173615928582   0.645169956666663   1.0
H209   H   0.526057677780933   0.741912912948138   0.678376643333337   1.0
H210   H   0.652500260213749   0.742356731972976   0.700620016666669   1.0
H211   H   0.711524155422772   0.651695989541558   0.661346693333336   1.0
H212   H   0.501502824278646   0.637437844887039   0.709633383333333   1.0
H213   H   0.625489168312910   0.634701073300199   0.735779953333335   1.0
H214   H   0.548786453740149   0.548021418630867   0.667246626666667   1.0
H215   H   0.439667158135734   0.554343432569652   0.727143353333332   1.0
H216   H   0.463632218050989   0.462577456546676   0.682843273333333   1.0
H217   H   0.396051706237010   0.436319433997319   0.778370029999998   1.0
H218   H   0.376603360673677   0.388741669055051   0.736470033333333   1.0
H219   H   0.256826742601085   0.501453118439848   0.752069983333335   1.0
H220   H   0.183275155502457   0.410835855088045   0.782636643333333   1.0
H221   H   0.201204573511326   0.375371327786439   0.734010060000003   1.0
H222   H   0.057349776676730   0.421817640290584   0.691520056666668   1.0
H223   H   0.926684201057505   0.395798954998398   0.771016693333337   1.0
H224   H   0.015907766059691   0.343095858052259   0.753793336666668   1.0
H225   H   0.783192798518094   0.701823308887008   0.545093283333330   1.0
H226   H   0.544318275453406   0.534655393508253   0.764713286666669   1.0
H227   H   0.854506369633384   0.281703932816541   0.737206649999997   1.0
H228   H   0.077541401942305   0.252274117283747   0.435860063333337   1.0
H229   H   0.937325339450673   0.213167750425399   0.488680013333337   1.0
H230   H   0.172795526582696   0.185273704047575   0.511266710000001   1.0
H231   H   0.969733905204045   0.149395731728411   0.517626700000001   1.0
H232   H   0.974751485569612   0.278932305740192   0.544380060000002   1.0
H233   H   0.654197034835065   0.000493115329441   0.605336633333330   1.0
H234   H   0.826921522782001   0.216818217923184   0.564130020000000   1.0
H235   H   0.941874421952591   0.260601785965520   0.644686636666670   1.0
H236   H   0.769691336966034   0.207407066067034   0.673399990000000   1.0
H237   H   0.707168942464342   0.234474383395032   0.630763373333330   1.0
H238   H   0.901240588936147   0.176232509427472   0.597870000000000   1.0
H239   H   0.757305033324890   0.336147450372501   0.750813293333330   1.0
H240   H   0.110184212587548   0.292237582848252   0.484723283333331   1.0
H241   H   0.306308166215992   0.261711327001173   0.476710003333331   1.0
H242   H   0.230066087747033   0.352811576662376   0.452080026666664   1.0
H243   H   0.205761671291533   0.324917534635503   0.399580006666667   1.0
H244   H   0.430569138570412   0.307487592646595   0.406969959999998   1.0
H245   H   0.313135656209461   0.411127308067776   0.378013356666664   1.0
H246   H   0.361574802770420   0.360804304582906   0.342906696666667   1.0
H247   H   0.492299709224774   0.437724748509659   0.399226700000000   1.0
H248   H   0.395639759716822   0.493377735453251   0.338659986666670   1.0
H249   H   0.460311412306737   0.445700050860907   0.300526683333331   1.0
H250   H   0.661800318119283   0.274872870356134   0.706013363333334   1.0
H251   H   0.542669891458750   0.543239825016478   0.303123346666666   1.0
H252   H   0.634781065501649   0.484223342072603   0.325839996666666   1.0
H253   H   0.934780335077093   0.337648533725144   0.680906676666666   1.0
H254   H   0.490069700439804   0.184003325660107   0.497243373333333   1.0
H255   H   0.543712305871296   0.408638671366347   0.488246663333335   1.0
H256   H   0.559185323883256   0.548874201191019   0.551433310000000   1.0
H257   H   0.845933415434992   0.555226589137085   0.530089953333331   1.0
H258   H   0.964401321169952   0.629514827945542   0.671269989999999   1.0
H259   H   0.374163306350127   0.598727497476972   0.639996719999999   1.0
H260   H   0.329731831250790   0.703990118601425   0.558920033333337   1.0
H261   H   0.257974115143575   0.781093306931517   0.500716653333335   1.0
H262   H   0.164974182481608   0.861159655667620   0.448009999999997   1.0
H263   H   0.449629736966848   0.971199558611417   0.440556716666670   1.0
H264   H   0.741322673465689   0.981215362493259   0.396430019999997   1.0
H265   H   0.509485685933051   0.780636543819639   0.520033393333335   1.0
H266   H   0.546944192122083   0.630324127075134   0.489110056666668   1.0
H267   H   0.434851454512028   0.524478425953070   0.499366633333331   1.0
H268   H   0.369339595528047   0.425067776545049   0.485493343333331   1.0
H269   H   0.000615520044747   0.469438893014363   0.556226603333336   1.0
H270   H   0.178944448934182   0.280067908988073   0.561100006666663   1.0
H271   H   0.152967449130735   0.260166760217970   0.699106726666663   1.0
H272   H   0.372070615765189   0.167791655038016   0.764916613333334   1.0
H273   H   0.137389335630225   0.112769373630449   0.621340053333334   1.0
H274   H   0.104027428476208   0.071069968938367   0.536443329999997   1.0
H275   H   0.566634951374006   0.523094853156010   0.395263353333334   1.0
H276   H   0.551994140637653   0.283009166693525   0.473706690000000   1.0
H277   H   0.095608130071291   0.007541603644555   0.459083303333330   1.0
H278   H   0.990143906403269   0.954983571843329   0.412693279999999   1.0
H279   H   0.968021108106079   0.385478584362588   0.495076626666666   1.0
H280   H   0.650189347213598   0.347503347971795   0.455093383333335   1.0
H281   H   0.729655450173496   0.103562868878200   0.497219979999997   1.0
H282   H   0.036204502973646   0.420033731899252   0.425939943333333   1.0
H283   H   0.720888634511539   0.575597784480486   0.363653313333330   1.0
H284   H   0.720694764968044   0.640970801829241   0.497803373333333   1.0
H285   H   0.938109156099628   0.672850256466091   0.577896626666664   1.0
H286   H   0.983469918684840   0.760348003542305   0.594340006666670   1.0
H287   H   0.617974812602064   0.618419848333417   0.609546663333333   1.0
H288   H   0.677661083298148   0.492803457434832   0.699000040000001   1.0
H289   H   0.845828311866526   0.159490044217520   0.440843326666666   1.0
H290   H   0.561819409348651   0.387140500716100   0.712196603333332   1.0
H291   H   0.584006790427409   0.726018914152341   0.591619999999999   1.0
H292   H   0.759421915183196   0.809030836739900   0.537543360000001   1.0
H293   H   0.789939521654979   0.429297003543489   0.708489989999997   1.0
H294   H   0.737177667644190   0.355504864818656   0.644260026666664   1.0
H295   H   0.917626718438903   0.329668754242618   0.586160023333335   1.0
H296   H   0.095511187219628   0.196199057381563   0.589789963333331   1.0
H297   H   0.120066040721909   0.114736022074162   0.468446603333334   1.0
H298   H   0.216548288601537   0.189502931046015   0.416573333333332   1.0
H299   H   0.410151275611341   0.342578181589587   0.475886663333334   1.0
H300   H   0.562570857847604   0.347951478791678   0.374623363333335   1.0
H301   H   0.020957722655176   0.501579422272719   0.705496723333333   1.0
H302   H   0.299480538863925   0.508797541216929   0.678639983333333   1.0
O303   O   0.355296739095536   0.677901726681171   0.580920030000001   1.0
O304   O   0.318112853146736   0.582720299920631   0.655146663333333   1.0
O305   O   0.969152280413738   0.631616247177881   0.638823320000000   1.0
O306   O   0.893184830264929   0.536882955588183   0.550540033333334   1.0
O307   O   0.566812798440850   0.385761405050324   0.360960006666666   1.0
O308   O   0.618831219230970   0.397691576317087   0.499950026666667   1.0
O309   O   0.501680517827054   0.271257253996907   0.495243326666667   1.0
O310   O   0.518203965529842   0.151318892390613   0.512043380000001   1.0
O311   O   0.272760251278328   0.757045581878089   0.524369940000000   1.0
O312   O   0.614516535139344   0.542861235488438   0.574766666666669   1.0
O313   O   0.139086110251540   0.081024859469416   0.564739993333333   1.0
O314   O   0.402523801053746   0.192544104050583   0.742333350000003   1.0
O315   O   0.802124255591131   0.964312064282453   0.410130056666667   1.0
O316   O   0.531204561068250   0.923421793383724   0.478053283333331   1.0
O317   O   0.493907709791145   0.812881474210293   0.502539953333333   1.0
O318   O   0.565317916721227   0.664827154538287   0.478566616666669   1.0
O319   O   0.462703076003635   0.564985799879665   0.497196706666664   1.0
O320   O   0.363239217321649   0.464230740608187   0.494650013333335   1.0
O321   O   0.023914980585815   0.432690712565773   0.548866653333334   1.0
O322   O   0.233475667546230   0.311368769460508   0.560476686666668   1.0
O323   O   0.151828099946449   0.289126698864649   0.677080026666665   1.0
O324   O   0.175106439582841   0.135947051539723   0.643303299999999   1.0
O325   O   0.198538119895929   0.860354672684025   0.474300003333333   1.0
O326   O   0.751374179870183   0.084053088386945   0.525356676666668   1.0
O327   O   0.958939264535843   0.795012029342551   0.610876720000000   1.0
O328   O   0.688811410020122   0.536104195802103   0.699840039999998   1.0
O329   O   0.029530515255217   0.951802972529748   0.439343389999998   1.0
O330   O   0.948322171977523   0.698629769837339   0.552586620000000   1.0
O331   O   0.778312681791078   0.619150808542933   0.497579960000003   1.0
O332   O   0.798843825195249   0.568732031866801   0.365413346666664   1.0
O333   O   0.629836058956187   0.035461707883655   0.384933346666664   1.0
O334   O   0.959658361044625   0.370315376089124   0.466513319999997   1.0
O335   O   0.654972682687301   0.311394827321792   0.437536620000003   1.0
O336   O   0.773537361595658   0.167630652349963   0.452466710000003   1.0
O337   O   0.608327390957918   0.764629346263298   0.594449996666668   1.0
O338   O   0.049504079703929   0.454867553664833   0.412620036666667   1.0
O339   O   0.129689271092694   0.034430501417120   0.476240030000000   1.0
O340   O   0.569664952803016   0.645643847852511   0.625680033333332   1.0
O341   O   0.574213881786505   0.425281055940943   0.723533376666666   1.0
O342   O   0.267411329650798   0.470892007103259   0.685593286666666   1.0
O343   O   0.019220564605575   0.482731056348193   0.733326720000001   1.0
O344   O   0.838338462545842   0.409495770072496   0.688306683333330   1.0
O345   O   0.678590378863944   0.339258334356096   0.661110053333331   1.0
O346   O   0.858602669711438   0.318747886741825   0.604010010000003   1.0
O347   O   0.081015701881675   0.232903589063362   0.578266653333330   1.0
O348   O   0.108802595153193   0.154516912922517   0.456000009999997   1.0
O349   O   0.277487027328654   0.215982695596075   0.416886650000002   1.0
O350   O   0.431045966829124   0.997496748445336   0.414456686666668   1.0
O351   O   0.416687945129731   0.370293634373844   0.454649990000000   1.0
O352   O   0.554943383290009   0.546864069316747   0.370616660000003   1.0


# Number_of_total_atoms: 352
# Number_of_atom_type: 3
# Name_of_each_atom: C H O
# Number_of_each_atom: 100 202 50
# Created_by: Lihua Chen (lihua.chen@mse.gatech.edu)
# Tool: VASP
# K-points: 1 1 1
# Pseudopotential: PBE-HSE06
# Material_class: MC_Pol
# Geometry_class: GC_PD
# Bandgap_(eV): 5.31
