#======================================================================

# Note: Disordered slab of isotactic polyvinyl alcohol
# Common_name: Disordered slab-2

#----------------------------------------------------------------------

data_1
_audit_creation_method   'vasp2cif'
_cell_length_a    12.6265431
_cell_length_b    22.8049393
_cell_length_c    30.0
_cell_angle_alpha    90.0
_cell_angle_beta    90.0
_cell_angle_gamma    90.0

_symmetry_space_group_name_H-M    'P 1'
loop_
_atom_site_label
_atom_site_type_symbol
_atom_site_fract_x
_atom_site_fract_y
_atom_site_fract_z
_atom_site_occupancy
C1   C   0.614599969171294   0.061384421224922   0.552580006666666   1.0
C2   C   0.558385002463581   0.173022622340419   0.545363363333337   1.0
C3   C   0.592234378069797   0.119227131641608   0.576073330000000   1.0
C4   C   0.524147555477796   0.285511406732837   0.550256730000001   1.0
C5   C   0.527671908869500   0.227208190815048   0.574780019999999   1.0
C6   C   0.583625545142283   0.394930693808071   0.560199993333335   1.0
C7   C   0.515792196519726   0.341630845735246   0.578880056666669   1.0
C8   C   0.621300029459370   0.506428381504179   0.572669983333334   1.0
C9   C   0.542656176416173   0.453189919255784   0.578473283333331   1.0
C10   C   0.814678516402481   0.543946665975120   0.593829983333336   1.0
C11   C   0.993325924654705   0.585520874418641   0.625090026666669   1.0
C12   C   0.028176516500388   0.903224026559897   0.522573343333335   1.0
C13   C   0.905637585001394   0.540039455399906   0.628016666666667   1.0
C14   C   0.198009200158673   0.609318429538639   0.628379953333337   1.0
C15   C   0.101434984211949   0.571778224377908   0.649763363333335   1.0
C16   C   0.284802670970173   0.715177097621130   0.629906720000001   1.0
C17   C   0.187760924048959   0.676053976604969   0.641419983333336   1.0
C18   C   0.215211153082748   0.783122882506426   0.570126723333331   1.0
C19   C   0.267022610487899   0.779044717737968   0.616729990000003   1.0
C20   C   0.102353572926859   0.851739609760770   0.519263333333335   1.0
C21   C   0.172063967373617   0.844026390370615   0.560676703333336   1.0
C22   C   0.952736762922861   0.913199975059790   0.482606633333333   1.0
C23   C   0.269271872203880   0.016394211582053   0.524906666666666   1.0
C24   C   0.768592941325323   0.954940954392278   0.457130050000004   1.0
C25   C   0.619074630173323   0.009404453885125   0.587263363333335   1.0
C26   C   0.271663587795459   0.327427690193410   0.639043299999997   1.0
C27   C   0.138103714230383   0.433334536435268   0.547263336666667   1.0
C28   C   0.603472537150729   0.892800784608973   0.437103273333335   1.0
C29   C   0.719616701740001   0.891998361951352   0.455783336666670   1.0
C30   C   0.562828087127031   0.780570768719386   0.452280046666665   1.0
C31   C   0.561149068583944   0.831577280278047   0.418966676666663   1.0
C32   C   0.489664641464692   0.677566811151301   0.475603360000001   1.0
C33   C   0.487035315311282   0.730134331030648   0.443036653333337   1.0
C34   C   0.375579551936113   0.579061712301950   0.488476689999999   1.0
C35   C   0.393715964902540   0.637097455462204   0.463240053333337   1.0
C36   C   0.255982336131254   0.485200506541140   0.488813273333335   1.0
C37   C   0.228183769475272   0.022392942742890   0.477046713333337   1.0
C38   C   0.279805198621624   0.547801019580000   0.467339959999997   1.0
C39   C   0.183009077124204   0.491019504708788   0.528006619999999   1.0
C40   C   0.220374791260170   0.406042277867407   0.579906719999997   1.0
C41   C   0.251872034555525   0.264055537301957   0.652440009999999   1.0
C42   C   0.863108224768190   0.957063170082634   0.490996680000002   1.0
C43   C   0.330381139711946   0.181735638296566   0.704763286666669   1.0
C44   C   0.341587730374123   0.245081529333426   0.686703363333336   1.0
C45   C   0.279559723674488   0.123151737571170   0.630379993333335   1.0
C46   C   0.350513332505081   0.130636962493469   0.671193313333333   1.0
C47   C   0.244783752411223   0.067277859406538   0.555339940000003   1.0
C48   C   0.294947918088525   0.064971468702836   0.601813380000003   1.0
C49   C   0.205255934223203   0.342928731233236   0.595040006666665   1.0
C50   C   0.583958169833515   0.598022674850966   0.712166723333333   1.0
C51   C   0.723949067262915   0.503486014540719   0.602006656666667   1.0
C52   C   0.028168660034908   0.226853065993474   0.536303330000003   1.0
C53   C   0.605468324897252   0.762684213765915   0.674610010000002   1.0
C54   C   0.581170383840053   0.081546755092660   0.403656643333335   1.0
C55   C   0.461644319734674   0.092487376188721   0.405266699999998   1.0
C56   C   0.669880341199644   0.180876179749354   0.420833333333334   1.0
C57   C   0.645423940302393   0.134741389116520   0.386543340000003   1.0
C58   C   0.735448556778778   0.286971550939406   0.435839970000004   1.0
C59   C   0.730712565341818   0.233241967015452   0.402743276666669   1.0
C60   C   0.850769154702370   0.375114793662263   0.461696626666665   1.0
C61   C   0.817180959054426   0.331409336397577   0.422706603333331   1.0
C62   C   0.932042333898977   0.459890287890396   0.413436636666667   1.0
C63   C   0.563049842201067   0.662771665434775   0.710919953333331   1.0
C64   C   0.855188218539404   0.438815805135690   0.450013353333333   1.0
C65   C   0.955476966613290   0.524293024537890   0.416386670000001   1.0
C66   C   0.870814039354919   0.636610688106501   0.474110029999999   1.0
C67   C   0.877411363685127   0.629945443441720   0.423943330000000   1.0
C68   C   0.857144430925040   0.718737716613873   0.539070003333336   1.0
C69   C   0.860534186906627   0.702271994207848   0.489023336666669   1.0
C70   C   0.852962827173180   0.805850375580697   0.596780013333330   1.0
C71   C   0.836600454799068   0.782649327200794   0.550620016666670   1.0
C72   C   0.666118369326284   0.794300202325026   0.635329946666666   1.0
C73   C   0.786919374630735   0.777628401755933   0.633793386666667   1.0
C74   C   0.401730826864245   0.049799286244976   0.435556666666663   1.0
C75   C   0.866988922724225   0.565112979713128   0.404240036666664   1.0
C76   C   0.498281481334345   0.496040263523085   0.736216610000000   1.0
C77   C   0.633140150608604   0.694949027994127   0.676463316666670   1.0
C78   C   0.785272241299360   0.302319033140336   0.669566726666666   1.0
C79   C   0.299058227584084   0.473378510593100   0.726296616666666   1.0
C80   C   0.403774196913801   0.463648122930984   0.752509943333337   1.0
C81   C   0.103090132405285   0.427625273267005   0.722063319999997   1.0
C82   C   0.212716424339455   0.431370058503070   0.746536636666669   1.0
C83   C   0.939542399376123   0.367568178530519   0.699929939999997   1.0
C84   C   0.030101009990609   0.372869626537444   0.733513386666665   1.0
C85   C   0.494281898899153   0.564779771196321   0.739606729999998   1.0
C86   C   0.846706277033178   0.320481760721023   0.709936650000003   1.0
C87   C   0.901059902927827   0.273264029253525   0.595940020000000   1.0
C88   C   0.933016361382393   0.218271521555856   0.569386673333334   1.0
C89   C   0.832339692405597   0.254623234186816   0.634896723333334   1.0
C90   C   0.108150899987820   0.198850220136300   0.457946649999997   1.0
C91   C   0.011212332534626   0.197451466139178   0.488946660000003   1.0
C92   C   0.240419968946213   0.266024365168995   0.413793310000003   1.0
C93   C   0.131744150938665   0.258460192437347   0.433813350000001   1.0
C94   C   0.383776601530784   0.343656713876889   0.395813306666668   1.0
C95   C   0.267893767376442   0.324936962230808   0.388880030000003   1.0
C96   C   0.506652695780211   0.425625666979961   0.369020016666667   1.0
C97   C   0.400384440932214   0.398758785558357   0.367049979999997   1.0
C98   C   0.623414701685057   0.512291203511339   0.341239993333332   1.0
C99   C   0.514857601840362   0.480350701920088   0.338013330000003   1.0
C100   C   0.287867500329526   0.068957464841837   0.446423340000003   1.0
H101   H   0.452053452381591   0.217815532620165   0.585286713333332   1.0
H102   H   0.536652949768964   0.334728744487386   0.613433329999999   1.0
H103   H   0.594649805614651   0.284612469895940   0.531923293333335   1.0
H104   H   0.582199850091989   0.228028171072573   0.604143270000002   1.0
H105   H   0.663877114552442   0.393895764502211   0.570833333333333   1.0
H106   H   0.531671483384869   0.110965750301297   0.599556606666667   1.0
H107   H   0.657897607778331   0.131737627558607   0.596276726666666   1.0
H108   H   0.557355385734994   0.047979500651422   0.528060026666665   1.0
H109   H   0.622662270879189   0.968543257644193   0.572606659999998   1.0
H110   H   0.623905635739682   0.189703118394178   0.524859999999997   1.0
H111   H   0.485007800749521   0.693927315123354   0.508909989999999   1.0
H112   H   0.117076502118778   0.528090329098134   0.639739990000002   1.0
H113   H   0.532067411229917   0.448642711362098   0.615603383333337   1.0
H114   H   0.466863555077083   0.462183628789575   0.562523400000003   1.0
H115   H   0.648853121168216   0.508603291919307   0.538660049999997   1.0
H116   H   0.760301028077905   0.462122238580129   0.598410033333330   1.0
H117   H   0.701931663306958   0.500513031402804   0.638146720000002   1.0
H118   H   0.784757421055332   0.587805515448139   0.596996693333331   1.0
H119   H   0.941997402281864   0.495641314861999   0.625060019999999   1.0
H120   H   0.885125327770830   0.538390795015182   0.661869940000003   1.0
H121   H   0.001961946338263   0.590423369379458   0.590060043333331   1.0
H122   H   0.554686476300866   0.007190065180310   0.606746673333333   1.0
H123   H   0.434027924872012   0.355487409694618   0.578420003333335   1.0
H124   H   0.098037371764882   0.568007177287249   0.686893336666664   1.0
H125   H   0.717114267007886   0.989464181560002   0.469036610000003   1.0
H126   H   0.169220742611650   0.677935152407969   0.677369943333332   1.0
H127   H   0.329652587175659   0.718623631679648   0.660589983333331   1.0
H128   H   0.337580299393267   0.805543428918490   0.622943370000002   1.0
H129   H   0.204479799383890   0.795436000130024   0.639343390000001   1.0
H130   H   0.160944542295191   0.743662036408054   0.563203306666665   1.0
H131   H   0.236840184705819   0.876435930702080   0.563466646666669   1.0
H132   H   0.124679588667462   0.854940587366528   0.591486613333331   1.0
H133   H   0.049140290821164   0.816418314255280   0.514153290000003   1.0
H134   H   0.075354860983289   0.943592513749863   0.530030060000001   1.0
H135   H   0.974817311636151   0.896186095088616   0.548873393333331   1.0
H136   H   0.918000525416971   0.870599537180091   0.473473360000000   1.0
H137   H   0.901028176112590   0.000115251348205   0.487423326666665   1.0
H138   H   0.828664735639322   0.948828221612501   0.525696693333330   1.0
H139   H   0.704299959978755   0.870226845988583   0.490179953333332   1.0
H140   H   0.767848525381424   0.863386134950161   0.435096613333336   1.0
H141   H   0.603385371566979   0.919641570806547   0.407743326666669   1.0
H142   H   0.604502153879316   0.818102102994857   0.389910000000000   1.0
H143   H   0.476858341377699   0.837882879170827   0.409853363333333   1.0
H144   H   0.645495092001866   0.768257651095787   0.458926646666669   1.0
H145   H   0.500514879642708   0.718014083905061   0.410316723333331   1.0
H146   H   0.404613634906930   0.747376205469664   0.443000030000000   1.0
H147   H   0.931812722359453   0.725174795795226   0.479203286666667   1.0
H148   H   0.187428291437897   0.608836007732762   0.592133333333337   1.0
H149   H   0.401683395037871   0.627446019994451   0.429543306666666   1.0
H150   H   0.358013397982226   0.012272301904353   0.523320006666665   1.0
H151   H   0.358496633967853   0.586998747240692   0.524133300000003   1.0
H152   H   0.241085234168331   0.980558124090251   0.458973313333331   1.0
H153   H   0.214403291428198   0.461223301743232   0.462103273333334   1.0
H154   H   0.115080714372247   0.514268731248059   0.520300040000002   1.0
H155   H   0.224754438132791   0.518513500274913   0.555440013333332   1.0
H156   H   0.116458827119516   0.399841893023584   0.523276646666666   1.0
H157   H   0.229870644483839   0.432589162822282   0.607316716666666   1.0
H158   H   0.121931378034894   0.338613872127255   0.599806726666664   1.0
H159   H   0.241314845707848   0.353395801408688   0.667206700000001   1.0
H160   H   0.352319091992804   0.333443904408902   0.632729980000001   1.0
H161   H   0.262500367182845   0.240043204149202   0.621323396666668   1.0
H162   H   0.303239981812602   0.545332207922165   0.431786726666665   1.0
H163   H   0.294195495202480   0.408589875089035   0.565306726666670   1.0
H164   H   0.415986533954808   0.247953639587195   0.668863296666665   1.0
H165   H   0.253709354542181   0.177797815931918   0.715189996666666   1.0
H166   H   0.355732559927667   0.092390857624430   0.691483306666669   1.0
H167   H   0.426559586210104   0.141862622717000   0.660363390000001   1.0
H168   H   0.306296962626291   0.156236732452079   0.604493333333330   1.0
H169   H   0.276288852172058   0.023199710950337   0.621666720000000   1.0
H170   H   0.379713731781422   0.061910671255326   0.595796713333336   1.0
H171   H   0.267600710126274   0.110992178786461   0.539713286666668   1.0
H172   H   0.342862814130022   0.276780820021742   0.713106663333335   1.0
H173   H   0.792320631289812   0.721237140061142   0.471629970000002   1.0
H174   H   0.239477517801369   0.978983894949458   0.542556636666667   1.0
H175   H   0.117630889803877   0.694028179237471   0.627433396666667   1.0
H176   H   0.214268701937904   0.580425508959806   0.470399983333337   1.0
H177   H   0.241219831578448   0.071584018642838   0.414013290000000   1.0
H178   H   0.452734581011328   0.139424589479177   0.415039953333334   1.0
H179   H   0.427937540560883   0.091040281786675   0.371460023333334   1.0
H180   H   0.608778771760576   0.071969921884424   0.437123363333335   1.0
H181   H   0.598221733389558   0.150764163621346   0.357689986666664   1.0
H182   H   0.725730948481058   0.125506468679795   0.375266646666667   1.0
H183   H   0.594190582535610   0.195197599144670   0.436319986666668   1.0
H184   H   0.685886210612942   0.243647646981458   0.372346686666667   1.0
H185   H   0.809879079254877   0.214211085402887   0.396243353333332   1.0
H186   H   0.794688927961602   0.354443780519077   0.393193310000001   1.0
H187   H   0.893005449765582   0.314320849781872   0.412149939999999   1.0
H188   H   0.744556180226397   0.269676981775611   0.468149946666664   1.0
H189   H   0.790776503190330   0.371611048313554   0.485669963333336   1.0
H190   H   0.781169788269288   0.458228244440008   0.436893336666664   1.0
H191   H   0.891698797590927   0.450725624163361   0.380846660000003   1.0
H192   H   0.024272106591077   0.536435012567651   0.396753313333335   1.0
H193   H   0.975514295753683   0.536079887746070   0.452293396666669   1.0
H194   H   0.797191362693724   0.549125337948169   0.419256720000000   1.0
H195   H   0.810940121845384   0.656558239556460   0.409346643333336   1.0
H196   H   0.951723160078551   0.649467613360407   0.412883376666670   1.0
H197   H   0.936342671653335   0.613514853775555   0.492186609999997   1.0
H198   H   0.323031535052536   0.662960352628524   0.464503353333335   1.0
H199   H   0.442335852003708   0.048974789422047   0.470569993333335   1.0
H200   H   0.872675372248167   0.460701406032683   0.480373383333330   1.0
H201   H   0.293767848462025   0.109470477739883   0.464436726666669   1.0
H202   H   0.539060671324997   0.010759467358021   0.376356696666669   1.0
H203   H   0.518231494414337   0.878532051168406   0.485243353333331   1.0
H204   H   0.883786948780937   0.811704335472626   0.529356640000003   1.0
H205   H   0.843744318268712   0.853576957339236   0.598033399999998   1.0
H206   H   0.821172835500796   0.795738601242405   0.664533360000000   1.0
H207   H   0.797745750378816   0.731572563317457   0.635826620000003   1.0
H208   H   0.673753032213547   0.839860573538118   0.642613346666664   1.0
H209   H   0.521922164111572   0.769682837963089   0.674836603333333   1.0
H210   H   0.620001225830372   0.782346726088413   0.706010056666663   1.0
H211   H   0.710049562179847   0.695650586537624   0.690186693333331   1.0
H212   H   0.482148720499751   0.673282563834753   0.706106693333332   1.0
H213   H   0.580742586622939   0.679452336889142   0.743406676666666   1.0
H214   H   0.586880553237094   0.582179554409073   0.678443273333336   1.0
H215   H   0.421783868935591   0.585240351856584   0.728476720000003   1.0
H216   H   0.500530743050327   0.479614028176783   0.701973343333336   1.0
H217   H   0.397953149979742   0.472935733707480   0.787556713333331   1.0
H218   H   0.423423304197961   0.417605496542585   0.748169963333332   1.0
H219   H   0.276312572045157   0.519864080497683   0.730176673333332   1.0
H220   H   0.198634882100073   0.444876014206272   0.779470063333335   1.0
H221   H   0.241362428010881   0.387296264366732   0.749283346666665   1.0
H222   H   0.120553423684115   0.428129606992641   0.685410056666669   1.0
H223   H   0.003851386687145   0.375005058662886   0.769990030000002   1.0
H224   H   0.076701246915320   0.333378164264616   0.727693303333332   1.0
H225   H   0.792851449578471   0.696610904813937   0.556696703333330   1.0
H226   H   0.506320063169149   0.576237775822541   0.774580003333334   1.0
H227   H   0.883937401678850   0.281928709189771   0.726936723333331   1.0
H228   H   0.082696609177219   0.264967519558361   0.402399953333337   1.0
H229   H   0.943977485017257   0.208913987330803   0.469656626666669   1.0
H230   H   0.173196454697091   0.191194041020751   0.477709959999998   1.0
H231   H   0.997594543513657   0.152737508053789   0.497926713333335   1.0
H232   H   0.028913083898630   0.274079659576202   0.530423360000000   1.0
H233   H   0.685426844977073   0.013894783749762   0.608666610000000   1.0
H234   H   0.865800996632245   0.208278006686037   0.549063366666665   1.0
H235   H   0.965646234558058   0.293632441284331   0.611906686666664   1.0
H236   H   0.878520139055318   0.221617353745820   0.653109996666664   1.0
H237   H   0.761663277417554   0.232992060627851   0.621263376666668   1.0
H238   H   0.954970319627705   0.181836506795697   0.593253326666670   1.0
H239   H   0.794340281466269   0.335636376808949   0.736413319999997   1.0
H240   H   0.131284777382973   0.296452032213914   0.455406699999997   1.0
H241   H   0.288754512705857   0.269606891696483   0.441536713333335   1.0
H242   H   0.214617190036755   0.361060847024490   0.400596620000002   1.0
H243   H   0.254635950199230   0.321950767042821   0.352190020000002   1.0
H244   H   0.440284625488665   0.309479911661064   0.383046659999998   1.0
H245   H   0.338372297640198   0.433466183354412   0.374066669999998   1.0
H246   H   0.383657867528285   0.389760730474734   0.331543353333331   1.0
H247   H   0.519783772012786   0.439333355296412   0.404253386666667   1.0
H248   H   0.457700326544639   0.512887539235855   0.350953356666665   1.0
H249   H   0.489862676665638   0.473948584463017   0.303980000000003   1.0
H250   H   0.709677346288075   0.281100029062564   0.680550003333330   1.0
H251   H   0.622345509595576   0.531199304705012   0.375853346666666   1.0
H252   H   0.630502975909536   0.548388655434835   0.315589969999998   1.0
H253   H   0.965543213486519   0.358425426723237   0.666100059999998   1.0
H254   H   0.455997445571626   0.193566334114294   0.504443360000003   1.0
H255   H   0.514493400810551   0.418166874927834   0.504586666666668   1.0
H256   H   0.552373927270722   0.577772526673641   0.557293319999999   1.0
H257   H   0.815304206263711   0.561907656557544   0.531010060000000   1.0
H258   H   0.914389014361340   0.625775276674382   0.670313389999997   1.0
H259   H   0.352643868138379   0.606577790803414   0.621533329999998   1.0
H260   H   0.340613552414041   0.707744400793032   0.571383286666666   1.0
H261   H   0.277017404708339   0.800772576491795   0.512036643333332   1.0
H262   H   0.136392976791882   0.875405513576617   0.457606633333334   1.0
H263   H   0.449883341387398   0.969222895497907   0.440763346666664   1.0
H264   H   0.735614722607650   0.993296618860107   0.399400013333334   1.0
H265   H   0.536613366488254   0.763149073586881   0.510619990000002   1.0
H266   H   0.568625263711333   0.606485622173963   0.473573303333332   1.0
H267   H   0.457977520387189   0.506704720761959   0.486270016666666   1.0
H268   H   0.348414674163671   0.414316704627233   0.479933293333332   1.0
H269   H   0.991741920241019   0.466327367071749   0.556653339999997   1.0
H270   H   0.193471243922652   0.270317312355225   0.557740019999997   1.0
H271   H   0.137961117797950   0.214715256882968   0.678286616666668   1.0
H272   H   0.389360188379669   0.191694024811547   0.762716673333330   1.0
H273   H   0.128972069956347   0.113434561959124   0.623080063333333   1.0
H274   H   0.108966618107850   0.057328335006794   0.533603286666668   1.0
H275   H   0.692887327173501   0.438407989974344   0.338976670000001   1.0
H276   H   0.370827705011358   0.299394232546803   0.535866673333331   1.0
H277   H   0.078570452113688   0.003370677684721   0.468099976666664   1.0
H278   H   0.955603858034586   0.950779483109606   0.425473276666665   1.0
H279   H   0.001272818686218   0.368905542318196   0.465986633333330   1.0
H280   H   0.618654839898340   0.328164368321737   0.461006673333330   1.0
H281   H   0.703887875692594   0.093776566202045   0.506926726666670   1.0
H282   H   0.050082741966008   0.426217652769637   0.382549986666668   1.0
H283   H   0.817101800412814   0.536316582083600   0.342843309999999   1.0
H284   H   0.717145684949983   0.625893707158433   0.472630056666667   1.0
H285   H   0.938116704325829   0.684214489446155   0.586153286666665   1.0
H286   H   0.984827969264209   0.768305829255155   0.596083326666665   1.0
H287   H   0.627350838409605   0.631164543375917   0.637526703333336   1.0
H288   H   0.687945444070117   0.554610952198409   0.738116710000000   1.0
H289   H   0.808643420383206   0.160367425314746   0.447639973333331   1.0
H290   H   0.600922361719100   0.441218881034253   0.752986653333330   1.0
H291   H   0.596328824157737   0.744249672262889   0.600536726666668   1.0
H292   H   0.758859628016474   0.797352137657299   0.539989980000001   1.0
H293   H   0.833852394643152   0.413939667885899   0.672423299999998   1.0
H294   H   0.759944533036915   0.347489151177001   0.613783393333335   1.0
H295   H   0.882321678369749   0.334798996812061   0.546950023333331   1.0
H296   H   0.123325346269951   0.167760477222579   0.560150020000002   1.0
H297   H   0.108261777524838   0.114543931278959   0.435189946666668   1.0
H298   H   0.226631499796646   0.181472515473871   0.393686676666668   1.0
H299   H   0.415004507449076   0.324941478796219   0.457553356666665   1.0
H300   H   0.587419077514575   0.354281521810499   0.382746696666665   1.0
H301   H   0.987845517273847   0.473194339964763   0.716703289999998   1.0
H302   H   0.285792553941384   0.494233694364624   0.664300033333333   1.0
O303   O   0.352897191631179   0.686380699991602   0.598986693333330   1.0
O304   O   0.298884054813073   0.587902034012430   0.641350046666666   1.0
O305   O   0.942298609030999   0.636053826286656   0.644006730000001   1.0
O306   O   0.857500925966029   0.541183953074587   0.550379943333333   1.0
O307   O   0.586088554990162   0.381670303327667   0.358340009999999   1.0
O308   O   0.578849819947948   0.397166994432652   0.512293370000002   1.0
O309   O   0.435112980369105   0.283187287413654   0.520979946666664   1.0
O310   O   0.476882053330968   0.155842133725827   0.517886606666664   1.0
O311   O   0.299486024801198   0.778632552641788   0.538983279999997   1.0
O312   O   0.574557338659069   0.557947922273136   0.583253353333333   1.0
O313   O   0.136377113384263   0.070518477547537   0.560919953333332   1.0
O314   O   0.411852362029322   0.175066048081959   0.736656696666664   1.0
O315   O   0.792859306043951   0.981334280508257   0.413926696666664   1.0
O316   O   0.537460811423514   0.915638008297613   0.470123290000004   1.0
O317   O   0.527054225950408   0.798505497447216   0.493906656666667   1.0
O318   O   0.584457118750102   0.648533548168665   0.468836719999999   1.0
O319   O   0.475812861241494   0.547371288113887   0.482153320000002   1.0
O320   O   0.349673902431775   0.453233743095296   0.496926626666664   1.0
O321   O   0.049053125237421   0.448721667941470   0.573426693333332   1.0
O322   O   0.238986425350262   0.305414958942691   0.559203340000003   1.0
O323   O   0.145065255430048   0.254570706092608   0.671119943333331   1.0
O324   O   0.172269859040043   0.135140337777614   0.640333303333335   1.0
O325   O   0.177386065391090   0.858702934587505   0.482240043333334   1.0
O326   O   0.711879184097505   0.064892516508472   0.529580053333333   1.0
O327   O   0.959072764737961   0.801645084843528   0.611736680000000   1.0
O328   O   0.682987547082462   0.594172504550365   0.731313326666665   1.0
O329   O   0.010111413629915   0.933103531654652   0.446060053333333   1.0
O330   O   0.952372411416391   0.701399323610566   0.557713319999998   1.0
O331   O   0.778833202573075   0.609349036943065   0.488416673333333   1.0
O332   O   0.855576440395630   0.567529272046777   0.357260006666664   1.0
O333   O   0.608034355816677   0.030483203259394   0.378986676666663   1.0
O334   O   0.942718248829323   0.355903920340623   0.484176636666667   1.0
O335   O   0.635175664192680   0.313307999026335   0.433843359999997   1.0
O336   O   0.736414727796713   0.159661354590845   0.455383300000001   1.0
O337   O   0.612002211436639   0.783315753004437   0.595516713333332   1.0
O338   O   0.027107324410906   0.426270347494416   0.412810006666668   1.0
O339   O   0.116347949582497   0.038192077099715   0.475366719999997   1.0
O340   O   0.626226207551611   0.671511118646123   0.631906639999997   1.0
O341   O   0.586040972687130   0.478618568390580   0.761876680000000   1.0
O342   O   0.320497223028525   0.463889333833919   0.678343326666663   1.0
O343   O   0.055064358826762   0.480021843338122   0.733036679999998   1.0
O344   O   0.892181883099894   0.423959440225303   0.692433293333330   1.0
O345   O   0.754147198056131   0.354272821940818   0.646053313333333   1.0
O346   O   0.843815319491526   0.314763797683078   0.569543330000002   1.0
O347   O   0.124346956056407   0.210483695521169   0.555580013333334   1.0
O348   O   0.108808308744457   0.154487036937653   0.424766669999997   1.0
O349   O   0.274142461050957   0.211663321550695   0.389233336666663   1.0
O350   O   0.415693484624462   0.993156276456304   0.418356706666664   1.0
O351   O   0.393232871473742   0.357530839821180   0.442186610000000   1.0
O352   O   0.715981629207761   0.477482937216152   0.339023336666664   1.0


# Number_of_total_atoms: 352
# Number_of_atom_type: 3
# Name_of_each_atom: C H O
# Number_of_each_atom: 100 202 50
# Created_by: Lihua Chen (lihua.chen@mse.gatech.edu)
# Tool: VASP
# K-points: 1 1 1
# Pseudopotential: PBE-HSE06
# Material_class: MC_Pol
# Geometry_class: GC_PD
# Bandgap_(eV): 5.34
