#======================================================================

# Note: Disordered slab of isotactic polyvinyl alcohol
# Common_name: Disordered slab-3

#----------------------------------------------------------------------

data_1
_audit_creation_method   'vasp2cif'
_cell_length_a    12.4873886
_cell_length_b    22.9236412
_cell_length_c    30.0
_cell_angle_alpha    90.0
_cell_angle_beta    90.0
_cell_angle_gamma    90.0

_symmetry_space_group_name_H-M    'P 1'
loop_
_atom_site_label
_atom_site_type_symbol
_atom_site_fract_x
_atom_site_fract_y
_atom_site_fract_z
_atom_site_occupancy
C1   C   0.670988552402385   0.063411431339276   0.542690023333336   1.0
C2   C   0.593302141650334   0.169097045542657   0.536553320000003   1.0
C3   C   0.642239451089075   0.118956717050693   0.564953359999997   1.0
C4   C   0.491078951447065   0.272069351704914   0.543220013333332   1.0
C5   C   0.572016626438611   0.226326217320135   0.564289986666665   1.0
C6   C   0.585326110536833   0.374448418779124   0.553293356666664   1.0
C7   C   0.487963776509687   0.334166820757950   0.564866639999998   1.0
C8   C   0.657518850658654   0.484457163812181   0.566843286666668   1.0
C9   C   0.575396043973520   0.435320118341409   0.575269953333333   1.0
C10   C   0.831070108605417   0.533083832249126   0.597626626666667   1.0
C11   C   0.998038493012061   0.586360630177722   0.627423350000001   1.0
C12   C   0.056015987201683   0.922563794097421   0.517423376666670   1.0
C13   C   0.925381260258050   0.533022759926986   0.631766640000002   1.0
C14   C   0.204605997446095   0.609463508790220   0.632863366666669   1.0
C15   C   0.096769231639030   0.581029888916603   0.654186629999998   1.0
C16   C   0.289003130726627   0.716593047181355   0.626616669999997   1.0
C17   C   0.185122228037336   0.677013859386349   0.636066690000000   1.0
C18   C   0.231008523271228   0.801409485505296   0.574016700000001   1.0
C19   C   0.270472466917539   0.783877310032231   0.623266729999997   1.0
C20   C   0.132781516865741   0.871612063095803   0.520360056666668   1.0
C21   C   0.177162229098883   0.862010604144338   0.568289946666667   1.0
C22   C   0.983423828101259   0.920653089789241   0.477196630000002   1.0
C23   C   0.283725742306125   0.026850904471495   0.519236630000002   1.0
C24   C   0.794537282198455   0.951232882671363   0.449223330000002   1.0
C25   C   0.687701430225374   0.014086845854138   0.576696650000002   1.0
C26   C   0.232297968207703   0.339990633774185   0.644906616666667   1.0
C27   C   0.111896493715264   0.429653400786954   0.544990030000001   1.0
C28   C   0.637923128299221   0.888197534691827   0.423316703333334   1.0
C29   C   0.745223304734829   0.889266378850841   0.447760010000003   1.0
C30   C   0.556312774634080   0.788265844956605   0.455720013333334   1.0
C31   C   0.589826651186300   0.825947467717299   0.414366659999999   1.0
C32   C   0.473325143417092   0.688752840888121   0.477399953333332   1.0
C33   C   0.473509201115114   0.737039209983799   0.444876606666668   1.0
C34   C   0.347766329623156   0.592358839572135   0.493223316666665   1.0
C35   C   0.366841670963936   0.654316688572145   0.469946669999999   1.0
C36   C   0.230095730343493   0.488304702657793   0.489033383333336   1.0
C37   C   0.249074838593558   0.026689485961768   0.469839986666663   1.0
C38   C   0.265002932638772   0.548473991993909   0.467886606666667   1.0
C39   C   0.133926624178251   0.489238254174033   0.523736700000001   1.0
C40   C   0.179220281492640   0.415947131470546   0.587206649999999   1.0
C41   C   0.233427043345152   0.276553905406615   0.662323379999997   1.0
C42   C   0.887927392601526   0.962950061354128   0.481280009999999   1.0
C43   C   0.331966396881413   0.193508555700127   0.697816719999999   1.0
C44   C   0.330452877873924   0.260928111193785   0.692076620000002   1.0
C45   C   0.276406341674992   0.142604749022155   0.618170040000003   1.0
C46   C   0.363582310556105   0.154937144104316   0.654779943333331   1.0
C47   C   0.243100795309594   0.082007957793373   0.547233326666664   1.0
C48   C   0.307149486803027   0.088451140126900   0.591776656666667   1.0
C49   C   0.177522704787130   0.350228937451696   0.600490059999998   1.0
C50   C   0.589706441905719   0.570097991238846   0.691430029999999   1.0
C51   C   0.752070420872464   0.480736092658788   0.599649939999999   1.0
C52   C   0.975271378997526   0.236154490151414   0.551983389999997   1.0
C53   C   0.611352272644098   0.737837468857258   0.654573313333330   1.0
C54   C   0.595664453014621   0.090444719576226   0.387490020000001   1.0
C55   C   0.483335234718332   0.105677953989264   0.402483366666665   1.0
C56   C   0.709074770044396   0.177970129806425   0.417250063333334   1.0
C57   C   0.668513983780407   0.143547121126638   0.376603316666667   1.0
C58   C   0.744702755546506   0.285841186521452   0.441570026666668   1.0
C59   C   0.766572964662927   0.237258114997893   0.406883366666669   1.0
C60   C   0.841856743370670   0.382610272228483   0.468206660000000   1.0
C61   C   0.813700592291973   0.342202206515083   0.429699960000001   1.0
C62   C   0.934406173601424   0.461075219585972   0.419663366666668   1.0
C63   C   0.567708231647408   0.636889352464650   0.689599993333331   1.0
C64   C   0.854037312493020   0.445776585440534   0.456030020000000   1.0
C65   C   0.962586765338592   0.525170591136281   0.414576723333333   1.0
C66   C   0.876812066215351   0.641513356089348   0.464513273333331   1.0
C67   C   0.887406851421282   0.629155000907971   0.414453379999998   1.0
C68   C   0.899731301707071   0.713831657773461   0.529953386666669   1.0
C69   C   0.877164581872627   0.705687275370543   0.477369943333336   1.0
C70   C   0.877332607395594   0.795638089990696   0.594329963333337   1.0
C71   C   0.879270594654194   0.778385154623692   0.546246719999999   1.0
C72   C   0.675040648610874   0.770297347002625   0.617013296666670   1.0
C73   C   0.796907529569474   0.758999019754334   0.621753313333336   1.0
C74   C   0.432940310674724   0.051864487392166   0.425006613333331   1.0
C75   C   0.869492665584218   0.566546993415692   0.400733313333333   1.0
C76   C   0.522206396299701   0.469442088458443   0.717116673333337   1.0
C77   C   0.626639760373919   0.671635028033855   0.652133306666670   1.0
C78   C   0.760671018118231   0.320499825306982   0.687673316666668   1.0
C79   C   0.313820184950437   0.461197364230252   0.731266660000003   1.0
C80   C   0.426029346119655   0.434896939496682   0.739686713333334   1.0
C81   C   0.106098564114518   0.436210072944256   0.735076649999996   1.0
C82   C   0.222167659617803   0.425430773187990   0.751843389999998   1.0
C83   C   0.921096849664792   0.385816638937797   0.715083313333331   1.0
C84   C   0.026041745829872   0.385690166883258   0.742419943333331   1.0
C85   C   0.529637910043100   0.535618237647171   0.729106653333332   1.0
C86   C   0.853364633819439   0.329695580822474   0.721716690000001   1.0
C87   C   0.869893149637385   0.282800727137534   0.618220013333335   1.0
C88   C   0.879502764893537   0.231177200592377   0.584150059999999   1.0
C89   C   0.784935610957120   0.270634243743089   0.654800033333331   1.0
C90   C   0.062198224535109   0.195894860716976   0.477606710000003   1.0
C91   C   0.962354595099249   0.201151386019774   0.508899943333333   1.0
C92   C   0.204013359526584   0.249708161546344   0.433203380000002   1.0
C93   C   0.087944256015227   0.250798804162052   0.453516643333330   1.0
C94   C   0.348487120838058   0.327963766070461   0.413913346666668   1.0
C95   C   0.239609264662427   0.300899858788576   0.402286656666668   1.0
C96   C   0.475158961578245   0.419563358896056   0.391203310000002   1.0
C97   C   0.368058875015713   0.383875315584682   0.386233330000003   1.0
C98   C   0.573169829919443   0.518997985363690   0.367786663333334   1.0
C99   C   0.470482163100137   0.478502551331154   0.365439986666665   1.0
C100   C   0.317023336648624   0.069789218302716   0.442653273333335   1.0
H101   H   0.551676128666323   0.212864237292287   0.599069980000003   1.0
H102   H   0.478282080530434   0.328343177871758   0.601263299999999   1.0
H103   H   0.496140057657854   0.276937810385903   0.505183283333331   1.0
H104   H   0.646852112858888   0.252225261665671   0.564553326666669   1.0
H105   H   0.653546947357754   0.355315389424263   0.568323390000003   1.0
H106   H   0.587344138549511   0.112212666284449   0.592203396666669   1.0
H107   H   0.723185078103519   0.128597449867605   0.581043370000003   1.0
H108   H   0.614451407398342   0.051672449837504   0.518516669999997   1.0
H109   H   0.696750479920198   0.971609313968848   0.562289939999999   1.0
H110   H   0.644601914606866   0.181948463754530   0.507156626666664   1.0
H111   H   0.489941788149366   0.705848689517964   0.511179986666669   1.0
H112   H   0.120937599395283   0.534466688477046   0.650606663333335   1.0
H113   H   0.570294921389731   0.432183644542476   0.610536703333331   1.0
H114   H   0.495779742131191   0.453196924928314   0.568963369999999   1.0
H115   H   0.684362029063465   0.478053250981787   0.533963393333330   1.0
H116   H   0.794521089861817   0.441322650783768   0.591763306666664   1.0
H117   H   0.715665595607398   0.481892135006895   0.632183333333330   1.0
H118   H   0.785384063406177   0.573596571560365   0.599586613333337   1.0
H119   H   0.965669707756192   0.491685465745292   0.626156616666670   1.0
H120   H   0.894037381042182   0.525044119081748   0.666116713333331   1.0
H121   H   0.018562279706742   0.584528469238123   0.592546716666668   1.0
H122   H   0.628641748203464   0.012555714752679   0.606133270000001   1.0
H123   H   0.413985178614524   0.357723327130074   0.555066683333337   1.0
H124   H   0.089762042001318   0.589047799264982   0.690056609999999   1.0
H125   H   0.727197302084441   0.980547636559585   0.457369996666664   1.0
H126   H   0.160817770978952   0.689699374635126   0.668250020000002   1.0
H127   H   0.337027503092202   0.710049514297928   0.655526606666669   1.0
H128   H   0.340847429061348   0.808930001050619   0.632150013333330   1.0
H129   H   0.214880339352938   0.799450686743434   0.650276693333332   1.0
H130   H   0.172685824800872   0.768072630625539   0.561709980000003   1.0
H131   H   0.222183699800937   0.898209024489532   0.580550003333336   1.0
H132   H   0.112112623771473   0.864715248640344   0.592139943333336   1.0
H133   H   0.094246542467651   0.830335836873942   0.508023326666667   1.0
H134   H   0.084044297300075   0.966810748198242   0.525716656666667   1.0
H135   H   0.005061570679395   0.914310253643301   0.545423380000003   1.0
H136   H   0.953169311956863   0.875402857029535   0.471950023333335   1.0
H137   H   0.920384154618205   0.007953431063122   0.478773373333333   1.0
H138   H   0.855430622219927   0.961296789970696   0.514106623333333   1.0
H139   H   0.734804769349452   0.876641770156482   0.484570060000003   1.0
H140   H   0.795786398446829   0.851715551192626   0.434870019999998   1.0
H141   H   0.660217645505163   0.908918435697728   0.389466666666664   1.0
H142   H   0.659136538763597   0.805697508474353   0.396293326666665   1.0
H143   H   0.515896013678955   0.827168914160112   0.394930013333337   1.0
H144   H   0.630892098608989   0.766938386734125   0.470766703333332   1.0
H145   H   0.479475300384259   0.718612752497627   0.412846629999997   1.0
H146   H   0.395014022387357   0.759430849057260   0.443283336666667   1.0
H147   H   0.942101929942339   0.728161955352888   0.458336639999999   1.0
H148   H   0.211372776530716   0.595024210202695   0.598363366666668   1.0
H149   H   0.349408001926037   0.645212624423735   0.433899943333330   1.0
H150   H   0.374545363311590   0.029219734079589   0.519236630000002   1.0
H151   H   0.323846324442883   0.599678832872328   0.526763279999997   1.0
H152   H   0.262368282508639   0.984063687927552   0.456396613333332   1.0
H153   H   0.205014433522152   0.465084176941318   0.460103353333331   1.0
H154   H   0.064576720227962   0.502264077488704   0.505153273333335   1.0
H155   H   0.142439244663208   0.523478045887401   0.546110026666668   1.0
H156   H   0.122098746890920   0.391836651151216   0.521746700000001   1.0
H157   H   0.142463220853074   0.439215581510673   0.614453380000000   1.0
H158   H   0.096016368065939   0.334249691536790   0.602750016666668   1.0
H159   H   0.198391687754473   0.366155765864981   0.672540030000000   1.0
H160   H   0.313499893804860   0.359908939771749   0.642486699999999   1.0
H161   H   0.245999688037259   0.248757300389087   0.634200033333336   1.0
H162   H   0.294056140769094   0.540203137536459   0.433006666666664   1.0
H163   H   0.263473373448150   0.427864832398441   0.586033376666670   1.0
H164   H   0.396799872152613   0.277862545676207   0.674879963333332   1.0
H165   H   0.252141900989613   0.179919942212322   0.708076603333332   1.0
H166   H   0.393732809756557   0.113778739478789   0.664086660000002   1.0
H167   H   0.430129554869460   0.176116000280096   0.639286676666664   1.0
H168   H   0.282076125988425   0.174685215366225   0.596060053333332   1.0
H169   H   0.289860011243661   0.047951383046424   0.611890029999998   1.0
H170   H   0.391426418811058   0.087945090503339   0.581266659999997   1.0
H171   H   0.249923630950349   0.121486965168515   0.525293349999998   1.0
H172   H   0.321996466098604   0.277369644051134   0.726729966666667   1.0
H173   H   0.799213936531132   0.722045933086754   0.467636616666667   1.0
H174   H   0.266340185809547   0.988425931217243   0.535329946666664   1.0
H175   H   0.122467158585906   0.687199745562239   0.613960013333333   1.0
H176   H   0.192906113292573   0.574582374810511   0.460616683333335   1.0
H177   H   0.268958947910050   0.082719022840053   0.413006719999998   1.0
H178   H   0.491271105313402   0.139258932389850   0.426196670000003   1.0
H179   H   0.433869287931024   0.119824873196848   0.375406646666669   1.0
H180   H   0.636681940049499   0.060030668251777   0.410246659999998   1.0
H181   H   0.621226282651286   0.171025220897278   0.355443319999999   1.0
H182   H   0.736558554764606   0.128902811478312   0.356846683333330   1.0
H183   H   0.638571814766777   0.192531402908187   0.434793346666666   1.0
H184   H   0.738809057323643   0.250920948806332   0.374276670000000   1.0
H185   H   0.852651634465829   0.228987260540443   0.409670003333332   1.0
H186   H   0.772915427649941   0.368341212738926   0.404880016666667   1.0
H187   H   0.882593947624883   0.326179529454507   0.409340033333336   1.0
H188   H   0.763457637572039   0.273029199218144   0.474746703333331   1.0
H189   H   0.781668154380974   0.379369129194011   0.495210013333335   1.0
H190   H   0.769736252141620   0.459085967546898   0.448536683333330   1.0
H191   H   0.909877642472019   0.441374902517666   0.387893360000000   1.0
H192   H   0.014558143886063   0.529053076437087   0.386263339999999   1.0
H193   H   0.000737135705059   0.538410246099993   0.445419946666668   1.0
H194   H   0.789876515895408   0.558367664557586   0.415670013333333   1.0
H195   H   0.831598593800472   0.657889484851999   0.395396679999998   1.0
H196   H   0.965733860480647   0.642760924036800   0.400516636666666   1.0
H197   H   0.949757661902183   0.624312838223972   0.477756626666668   1.0
H198   H   0.295233320439792   0.680460022206248   0.480083340000000   1.0
H199   H   0.479483244399070   0.037167760242205   0.452733360000003   1.0
H200   H   0.876948299662907   0.464918431021332   0.486780039999999   1.0
H201   H   0.321595974037358   0.112011973909276   0.459943389999999   1.0
H202   H   0.528949191186378   0.031139093208282   0.351876640000000   1.0
H203   H   0.531952253011490   0.907291290181249   0.467873383333334   1.0
H204   H   0.939507456346796   0.804999591426167   0.532293320000001   1.0
H205   H   0.865176478931708   0.842415126441608   0.595493320000003   1.0
H206   H   0.819898861800453   0.763466098047289   0.656113306666668   1.0
H207   H   0.811602219218194   0.714089090698209   0.614566676666669   1.0
H208   H   0.663709176152331   0.816005705062246   0.621193313333336   1.0
H209   H   0.527483784720211   0.750379206772791   0.654316713333330   1.0
H210   H   0.634607863488768   0.756285720437816   0.685756683333331   1.0
H211   H   0.709963730927697   0.659080307887564   0.657759986666669   1.0
H212   H   0.483679518069934   0.643816620197320   0.687269973333336   1.0
H213   H   0.583171833060433   0.655974453133560   0.722373326666670   1.0
H214   H   0.571255818850709   0.554925829147948   0.656900026666669   1.0
H215   H   0.456091716405780   0.556705738353642   0.735066603333337   1.0
H216   H   0.512076239863312   0.467457163829628   0.681740063333336   1.0
H217   H   0.445448962803958   0.431389704354643   0.776163356666665   1.0
H218   H   0.429721118793403   0.387469910321229   0.728696700000000   1.0
H219   H   0.311137430287069   0.500571532239825   0.750273386666663   1.0
H220   H   0.222536071312781   0.432659075121102   0.788186646666666   1.0
H221   H   0.243605304314784   0.381236236588805   0.745276643333334   1.0
H222   H   0.114523047677075   0.446457031442286   0.701163356666669   1.0
H223   H   0.002466015993129   0.385755566615657   0.777316666666664   1.0
H224   H   0.067211362350008   0.342738875183578   0.736276626666665   1.0
H225   H   0.840119150292161   0.684839736542379   0.547003300000000   1.0
H226   H   0.574963631707597   0.539169235470325   0.761433286666666   1.0
H227   H   0.909885586486837   0.295647660896037   0.722023393333330   1.0
H228   H   0.043963883689820   0.263309923032644   0.425350063333333   1.0
H229   H   0.901284989241063   0.221039072972403   0.487556713333333   1.0
H230   H   0.134070817656784   0.183662807460102   0.496213279999999   1.0
H231   H   0.924788622338539   0.159308037852206   0.512773386666666   1.0
H232   H   0.994891397870006   0.280192101418862   0.540280023333331   1.0
H233   H   0.766917248014529   0.018532042806534   0.592436726666669   1.0
H234   H   0.812403203340686   0.226688323842723   0.564056653333331   1.0
H235   H   0.948868701018881   0.286499999834234   0.633489990000001   1.0
H236   H   0.803978559616539   0.230980839989769   0.674503326666667   1.0
H237   H   0.709034761679476   0.264487763837451   0.639943313333333   1.0
H238   H   0.886093574440373   0.192326387485075   0.601559956666669   1.0
H239   H   0.822645464881262   0.337691692714159   0.757323329999998   1.0
H240   H   0.083043375458018   0.284096389538675   0.479699963333331   1.0
H241   H   0.260197972857192   0.246733101894826   0.460546620000002   1.0
H242   H   0.169362463822097   0.329935376933051   0.399500019999998   1.0
H243   H   0.252830611838249   0.288750846440571   0.367700003333333   1.0
H244   H   0.415570794361280   0.300223735834777   0.404046630000003   1.0
H245   H   0.302488720499980   0.417430333886053   0.391693306666667   1.0
H246   H   0.360034723352804   0.374042715343144   0.349136670000000   1.0
H247   H   0.494474409165100   0.426530066261897   0.426513290000003   1.0
H248   H   0.396463532815822   0.500706824882599   0.369629986666666   1.0
H249   H   0.471811616401524   0.465899911223531   0.330123333333333   1.0
H250   H   0.696422084598218   0.305397390358735   0.706503296666668   1.0
H251   H   0.587223929268930   0.530492511809165   0.402256646666665   1.0
H252   H   0.555920378741156   0.554925829147948   0.346239980000000   1.0
H253   H   0.958862912298571   0.385258171812602   0.682456716666664   1.0
H254   H   0.452856492349412   0.177734490976064   0.516196696666668   1.0
H255   H   0.517713799665046   0.390946696548362   0.495353319999999   1.0
H256   H   0.545998408346165   0.542589272423264   0.551550040000002   1.0
H257   H   0.843218285046405   0.563175050916428   0.536119970000001   1.0
H258   H   0.911126766728472   0.628609677418964   0.664916613333332   1.0
H259   H   0.348198902050669   0.597881618387923   0.632173286666664   1.0
H260   H   0.333960440696146   0.724432067973567   0.564256666666665   1.0
H261   H   0.290196350580459   0.819368997103304   0.511233393333335   1.0
H262   H   0.188245499143029   0.905651162434005   0.467416636666670   1.0
H263   H   0.452415983915167   0.970619017540720   0.419829940000000   1.0
H264   H   0.772042354796262   0.975365165809698   0.389490000000002   1.0
H265   H   0.505821913798691   0.805981067266053   0.516729990000002   1.0
H266   H   0.562070679853754   0.622672544708998   0.484553273333333   1.0
H267   H   0.420760053867468   0.521375304024566   0.506286619999997   1.0
H268   H   0.332086606161994   0.424937867200612   0.502989960000001   1.0
H269   H   0.980172563861750   0.471802101840609   0.554796726666666   1.0
H270   H   0.182599691019469   0.283066814882794   0.566383366666663   1.0
H271   H   0.128337032772407   0.220969350192064   0.678999963333332   1.0
H272   H   0.414737890034111   0.151194274494230   0.741290030000002   1.0
H273   H   0.144377231921816   0.100120233080595   0.626860046666664   1.0
H274   H   0.093221644435729   0.065579572934510   0.532176720000002   1.0
H275   H   0.646643926817497   0.448664442540654   0.357013323333334   1.0
H276   H   0.340374992414347   0.282696057902008   0.546080016666664   1.0
H277   H   0.100300778659196   0.003373024351824   0.466109979999999   1.0
H278   H   0.006158557442504   0.948131355327618   0.416756693333333   1.0
H279   H   0.963187347272914   0.388778550590821   0.507586670000002   1.0
H280   H   0.630243412141432   0.328591790208265   0.468363316666668   1.0
H281   H   0.748963037796386   0.093332581038652   0.492750039999997   1.0
H282   H   0.007222863233387   0.394436617687070   0.443236669999997   1.0
H283   H   0.799710341359919   0.539208509335765   0.346953329999998   1.0
H284   H   0.728278408826007   0.633155137675075   0.476676686666664   1.0
H285   H   0.982887094584370   0.665907399562684   0.570673370000002   1.0
H286   H   0.999535050907284   0.744956769782277   0.606253306666666   1.0
H287   H   0.603135975122932   0.608146047932387   0.606203333333333   1.0
H288   H   0.698175870013365   0.525205537591468   0.714346696666667   1.0
H289   H   0.835154125018583   0.131978208592798   0.429610060000002   1.0
H290   H   0.632349569068431   0.413373282077018   0.705826696666669   1.0
H291   H   0.613754752534888   0.709779099142416   0.580113346666664   1.0
H292   H   0.799269832925674   0.791136231010285   0.533103306666668   1.0
H293   H   0.798941437603695   0.429313254126484   0.694290033333331   1.0
H294   H   0.768230524995431   0.372232352860244   0.642043303333331   1.0
H295   H   0.908411931698836   0.354848613666142   0.587583289999998   1.0
H296   H   0.078542842816631   0.183606228315945   0.581253306666667   1.0
H297   H   0.061293375622185   0.114262820515620   0.452156703333330   1.0
H298   H   0.167496565294684   0.181660577552577   0.405006663333332   1.0
H299   H   0.275101008708901   0.327492492772045   0.472653326666666   1.0
H300   H   0.568316909750052   0.350599694432489   0.388443313333333   1.0
H301   H   0.995868335514118   0.496008600937273   0.736316680000002   1.0
H302   H   0.295001150200449   0.513841640480749   0.681659953333330   1.0
O303   O   0.344803444332626   0.695732526122420   0.588046646666669   1.0
O304   O   0.295465642832639   0.587320311923222   0.651926676666669   1.0
O305   O   0.937529444707117   0.634730031457657   0.635943349999998   1.0
O306   O   0.877781059844651   0.538301083686477   0.554753366666667   1.0
O307   O   0.562903432027412   0.387723020198031   0.372396660000000   1.0
O308   O   0.587904696102754   0.384599524267550   0.505590056666669   1.0
O309   O   0.386213175106924   0.248757300389087   0.547276686666663   1.0
O310   O   0.496756679775302   0.146378237677183   0.515526710000003   1.0
O311   O   0.310536856360827   0.797880286138835   0.538869986666668   1.0
O312   O   0.603039902193800   0.540024247980291   0.571409989999999   1.0
O313   O   0.135832539078670   0.072781749000676   0.559403356666664   1.0
O314   O   0.415714979831733   0.185695660774868   0.729979960000001   1.0
O315   O   0.832783869639485   0.970688740321059   0.407783379999998   1.0
O316   O   0.561710212173587   0.926263066794121   0.444439953333337   1.0
O317   O   0.513829873124955   0.823953892630286   0.489016723333336   1.0
O318   O   0.563375860666333   0.656140194691233   0.465966673333334   1.0
O319   O   0.447699161055979   0.559231493293481   0.501610056666664   1.0
O320   O   0.322949427552849   0.464983830753731   0.507406616666664   1.0
O321   O   0.995402921952795   0.428401501066944   0.554109956666665   1.0
O322   O   0.219693243149330   0.315552989025150   0.566366706666663   1.0
O323   O   0.139748537976949   0.261517031596185   0.683103306666666   1.0
O324   O   0.171989009775828   0.138512920887976   0.635213343333334   1.0
O325   O   0.218235780697974   0.882740321376168   0.488740033333336   1.0
O326   O   0.766668885438548   0.073523267324568   0.520083363333335   1.0
O327   O   0.974310633690060   0.782455179938864   0.615333303333330   1.0
O328   O   0.701707417033532   0.557194312568456   0.695350013333332   1.0
O329   O   0.053421361452628   0.938154641855064   0.441516623333335   1.0
O330   O   0.998559034192304   0.693804350767799   0.547673289999999   1.0
O331   O   0.789876515895408   0.611657771890094   0.485923386666670   1.0
O332   O   0.850433516580082   0.565242680556352   0.352200000000003   1.0
O333   O   0.593862707211656   0.055153559112590   0.347540029999998   1.0
O334   O   0.936584579421194   0.357300148285340   0.488626606666664   1.0
O335   O   0.636369576902574   0.302985129604977   0.443933360000003   1.0
O336   O   0.773691963105883   0.142958200724237   0.446230063333331   1.0
O337   O   0.636577770952044   0.749013651461269   0.575183359999997   1.0
O338   O   0.028019757469551   0.427031792837518   0.423873393333331   1.0
O339   O   0.136905709813497   0.039200604832359   0.468849946666666   1.0
O340   O   0.596241050750997   0.647358806156852   0.611660003333334   1.0
O341   O   0.617934994030698   0.444328329480221   0.727080026666670   1.0
O342   O   0.304170409175860   0.471985318807029   0.685076649999999   1.0
O343   O   0.060924963927206   0.488413699303585   0.753909940000000   1.0
O344   O   0.860131412904053   0.439023714086048   0.713413366666664   1.0
O345   O   0.723721811620408   0.369955210256912   0.665973286666670   1.0
O346   O   0.842753648268783   0.333678246543137   0.594850033333330   1.0
O347   O   0.077645937918518   0.222378332286929   0.570926666666665   1.0
O348   O   0.036460281215241   0.154003592588076   0.444999950000003   1.0
O349   O   0.229991561246038   0.201369545079075   0.405723316666666   1.0
O350   O   0.427775187519991   0.999525485506204   0.398326686666664   1.0
O351   O   0.341303817517137   0.346333304152395   0.459000016666664   1.0
O352   O   0.667192610631176   0.489910049717580   0.355256653333335   1.0


# Number_of_total_atoms: 352
# Number_of_atom_type: 3
# Name_of_each_atom: C H O
# Number_of_each_atom: 100 202 50
# Created_by: Lihua Chen (lihua.chen@mse.gatech.edu)
# Tool: VASP
# K-points: 1 1 1
# Pseudopotential: PBE-HSE06
# Material_class: MC_Pol
# Geometry_class: GC_PD
# Bandgap_(eV): 5.45
