#======================================================================

# Note: Disordered slab of isotactic polyvinyl alcohol
# Common_name: Disordered slab-4

#----------------------------------------------------------------------

data_1
_audit_creation_method   'vasp2cif'
_cell_length_a    12.5950318
_cell_length_b    23.0777302
_cell_length_c    30.0
_cell_angle_alpha    90.0
_cell_angle_beta    90.0
_cell_angle_gamma    90.0

_symmetry_space_group_name_H-M    'P 1'
loop_
_atom_site_label
_atom_site_type_symbol
_atom_site_fract_x
_atom_site_fract_y
_atom_site_fract_z
_atom_site_occupancy
C1   C   0.664938067087689   0.080617295716543   0.557016626666666   1.0
C2   C   0.589154201262119   0.184171712866288   0.547966639999999   1.0
C3   C   0.629344564259057   0.136719021873304   0.579066723333334   1.0
C4   C   0.516300030302425   0.287201815020787   0.545300040000001   1.0
C5   C   0.554553216769172   0.237170807205295   0.575350063333332   1.0
C6   C   0.581722755158111   0.394179385111279   0.548033396666668   1.0
C7   C   0.505359184563552   0.347207711961204   0.567496616666666   1.0
C8   C   0.661460473644851   0.496706816513523   0.561769993333336   1.0
C9   C   0.573314542961299   0.452365358704121   0.573270033333337   1.0
C10   C   0.840777146747655   0.537248073902866   0.581516646666664   1.0
C11   C   0.016960290644128   0.583695423391333   0.611083350000001   1.0
C12   C   0.035427985183809   0.921055273451458   0.527950033333333   1.0
C13   C   0.923444861806544   0.538894604981557   0.619323350000002   1.0
C14   C   0.208289668629497   0.608628607678234   0.629443360000003   1.0
C15   C   0.110997417251461   0.573430102757676   0.641156643333332   1.0
C16   C   0.298738046854318   0.709539753610606   0.615999986666665   1.0
C17   C   0.195371979926243   0.676607481094479   0.628043366666667   1.0
C18   C   0.215895874117599   0.787627909784646   0.570740000000001   1.0
C19   C   0.286050544151863   0.776019376463637   0.612510046666664   1.0
C20   C   0.106082693653860   0.865209257017831   0.525643286666664   1.0
C21   C   0.180151692828595   0.851737325536462   0.569013339999998   1.0
C22   C   0.962428272709879   0.928486732200376   0.487236660000001   1.0
C23   C   0.293688547892351   0.027353890288566   0.541669973333335   1.0
C24   C   0.772893276855406   0.956890673763056   0.462876639999998   1.0
C25   C   0.684477477857577   0.029455483451315   0.593450040000000   1.0
C26   C   0.252235655331973   0.341145586319406   0.642940013333330   1.0
C27   C   0.133887363428492   0.425382644433547   0.536816660000000   1.0
C28   C   0.622627741201889   0.889145696832870   0.434213383333336   1.0
C29   C   0.735164058895030   0.892646868711552   0.453960036666665   1.0
C30   C   0.571234405299400   0.778051552054286   0.450106686666665   1.0
C31   C   0.598467397279613   0.828455135505486   0.417816670000001   1.0
C32   C   0.482794835023761   0.675602139589969   0.460266623333332   1.0
C33   C   0.502246862131784   0.728467013623373   0.427560043333337   1.0
C34   C   0.349369209214700   0.583344496331790   0.475453313333333   1.0
C35   C   0.383501651817980   0.634636230386299   0.444969940000000   1.0
C36   C   0.248805771177175   0.479252690977383   0.477700043333336   1.0
C37   C   0.244939143385089   0.029351513087711   0.494883346666668   1.0
C38   C   0.272465767017756   0.539652994123315   0.455166626666667   1.0
C39   C   0.166376412007153   0.483022637122261   0.516526666666664   1.0
C40   C   0.200024560477885   0.414436957929254   0.578730010000001   1.0
C41   C   0.237253581209693   0.279471332063672   0.662459946666665   1.0
C42   C   0.857490292323043   0.958684650018135   0.499226633333336   1.0
C43   C   0.341675620064734   0.200681161442816   0.714926656666670   1.0
C44   C   0.331814676323404   0.262979242213341   0.692916616666665   1.0
C45   C   0.297031056324926   0.128052627983315   0.649426653333336   1.0
C46   C   0.376911735943374   0.151248202043718   0.683440019999999   1.0
C47   C   0.275586124363734   0.078268741524674   0.572926713333331   1.0
C48   C   0.335363591539327   0.077311173349273   0.616696676666663   1.0
C49   C   0.189123397052477   0.351540828742337   0.600003306666665   1.0
C50   C   0.582079991254965   0.572983798034002   0.697746660000000   1.0
C51   C   0.761055172564156   0.493586817303203   0.592193350000002   1.0
C52   C   0.005995681567079   0.225675005941440   0.556683350000000   1.0
C53   C   0.601016076831186   0.727591758569048   0.650540033333336   1.0
C54   C   0.593227243777186   0.074958155980177   0.411039989999999   1.0
C55   C   0.475919004825379   0.087255816865387   0.419196703333334   1.0
C56   C   0.672925287890102   0.179686856725624   0.418446606666670   1.0
C57   C   0.649685981737655   0.126796031266544   0.385526656666670   1.0
C58   C   0.738355738014093   0.288501713223077   0.424673336666665   1.0
C59   C   0.720801205122804   0.235234013611965   0.396033353333337   1.0
C60   C   0.846184040599248   0.380950111809525   0.443473306666668   1.0
C61   C   0.806668475422192   0.339758898819262   0.404696656666665   1.0
C62   C   0.958109299890772   0.460901666143926   0.399146653333332   1.0
C63   C   0.574354754705737   0.639727731975995   0.696036659999997   1.0
C64   C   0.865350463029401   0.446116936578108   0.429509993333333   1.0
C65   C   0.991908134761516   0.526098740854508   0.404199983333335   1.0
C66   C   0.885493341906447   0.641955117405786   0.458700053333331   1.0
C67   C   0.903016068605716   0.629475467219045   0.408516693333333   1.0
C68   C   0.883341731618337   0.718903707436532   0.521973293333332   1.0
C69   C   0.889836236856503   0.705054897469942   0.472923280000003   1.0
C70   C   0.836259492413511   0.803526414395812   0.579300053333334   1.0
C71   C   0.844913785767496   0.781513872625133   0.528963346666664   1.0
C72   C   0.658864251537658   0.760857603751688   0.613036726666664   1.0
C73   C   0.781785624391993   0.759392901646798   0.612736640000001   1.0
C74   C   0.411719127219669   0.045028847767703   0.447316616666669   1.0
C75   C   0.897275709935087   0.566605289457797   0.393083320000002   1.0
C76   C   0.509876846837336   0.475391830345600   0.736813353333332   1.0
C77   C   0.615910775231228   0.664205849845665   0.652713393333336   1.0
C78   C   0.776243955176042   0.315670715311505   0.687603379999999   1.0
C79   C   0.303287507380489   0.468211795803036   0.742530060000000   1.0
C80   C   0.411441247810110   0.455935956821264   0.763266626666670   1.0
C81   C   0.112315365491973   0.436232957606897   0.727953339999999   1.0
C82   C   0.213712465577103   0.425001302771101   0.756466676666669   1.0
C83   C   0.933496317174843   0.385049332104593   0.703629939999999   1.0
C84   C   0.019937686858398   0.394937605258946   0.738816706666668   1.0
C85   C   0.521794299876241   0.544371746750031   0.738566716666668   1.0
C86   C   0.857379137383361   0.337007354388781   0.721543376666666   1.0
C87   C   0.899435196344641   0.274678854682165   0.619383366666668   1.0
C88   C   0.905794926218448   0.223122644877790   0.587446723333336   1.0
C89   C   0.819006618149231   0.264469895743908   0.657366690000003   1.0
C90   C   0.093466663577615   0.183287700451579   0.483033373333335   1.0
C91   C   0.000133560599664   0.180544917714656   0.517810060000002   1.0
C92   C   0.211719711577068   0.254737660465416   0.438603336666667   1.0
C93   C   0.100350361957801   0.238570550582139   0.457546616666669   1.0
C94   C   0.320611854270986   0.335599013979284   0.410003279999998   1.0
C95   C   0.205883950209639   0.314297092354430   0.415966670000003   1.0
C96   C   0.424438444053791   0.428450576131617   0.378569983333335   1.0
C97   C   0.320508567513102   0.388862584068171   0.376623343333336   1.0
C98   C   0.521842001224641   0.520166697329707   0.346020000000003   1.0
C99   C   0.426748910629982   0.477038526085202   0.341763306666664   1.0
C100   C   0.304486432499516   0.066634092117084   0.461970013333335   1.0
H101   H   0.496022217268241   0.222386077639470   0.600820033333335   1.0
H102   H   0.529416408460357   0.345552423522136   0.601093293333335   1.0
H103   H   0.577546433824807   0.292527213096548   0.517873383333331   1.0
H104   H   0.618737342132000   0.256592140937670   0.593966676666668   1.0
H105   H   0.666645057617082   0.380425788147917   0.552879969999999   1.0
H106   H   0.570853239131957   0.126683463870293   0.604196676666668   1.0
H107   H   0.702714827603693   0.148912543400826   0.598303353333336   1.0
H108   H   0.607510590008992   0.068276493673544   0.530723320000000   1.0
H109   H   0.748224859583125   0.039655849690106   0.615889996666667   1.0
H110   H   0.654957941432116   0.196447551848060   0.525383376666667   1.0
H111   H   0.458292999307872   0.687631195203068   0.493310039999997   1.0
H112   H   0.137253793992009   0.528044296141395   0.634566626666668   1.0
H113   H   0.573656026815272   0.442299386098206   0.609236653333333   1.0
H114   H   0.502286536505608   0.473389909030132   0.567186610000000   1.0
H115   H   0.686756138241748   0.493760213905269   0.527099993333330   1.0
H116   H   0.787081363303905   0.451251748319685   0.584273276666664   1.0
H117   H   0.728479042029889   0.495372200858817   0.626190059999999   1.0
H118   H   0.812893128225369   0.580584190207752   0.583026633333333   1.0
H119   H   0.952281422584420   0.497889684142336   0.622706603333334   1.0
H120   H   0.889359818845399   0.546616326245115   0.652583313333331   1.0
H121   H   0.037555673340975   0.576420011184638   0.577170053333333   1.0
H122   H   0.726629090368789   0.991473780207379   0.578546650000000   1.0
H123   H   0.424621071619683   0.367200973690210   0.562810006666666   1.0
H124   H   0.090544844833182   0.580133586967754   0.676356633333334   1.0
H125   H   0.704080493071878   0.980142613852031   0.475033316666668   1.0
H126   H   0.165804742152375   0.698195371050829   0.657746633333332   1.0
H127   H   0.352719744621844   0.699932981277335   0.643306606666670   1.0
H128   H   0.360857794737761   0.796987565094248   0.608353296666664   1.0
H129   H   0.247424210552609   0.787688574329550   0.646280033333333   1.0
H130   H   0.142335099145995   0.762270238344321   0.570526633333337   1.0
H131   H   0.246304642120869   0.883945926363246   0.575976689999997   1.0
H132   H   0.129901704575289   0.853726351302953   0.600469969999999   1.0
H133   H   0.056317150386235   0.825409025710854   0.519373323333333   1.0
H134   H   0.067130930149773   0.960192662274906   0.536610029999999   1.0
H135   H   0.985739210281309   0.906764452944337   0.557243346666667   1.0
H136   H   0.945517056971624   0.886550190278243   0.474043273333336   1.0
H137   H   0.878958852648552   0.002663442178559   0.509133276666667   1.0
H138   H   0.826136556479355   0.933625838125103   0.528560006666666   1.0
H139   H   0.728923661788613   0.864212677206879   0.481823349999999   1.0
H140   H   0.791789537204664   0.874707600143452   0.429603326666666   1.0
H141   H   0.629932145149489   0.916566118794471   0.404943340000003   1.0
H142   H   0.666263891449645   0.812981447369552   0.397100006666669   1.0
H143   H   0.529384602268330   0.836012217527355   0.398846693333333   1.0
H144   H   0.647780452606717   0.762499836314056   0.463386666666665   1.0
H145   H   0.530726329726299   0.716459779913713   0.394060009999997   1.0
H146   H   0.425319799510156   0.749197002918422   0.420693333333332   1.0
H147   H   0.960657677736073   0.727635068720929   0.457660040000000   1.0
H148   H   0.231743408539863   0.595568267801312   0.595783359999999   1.0
H149   H   0.402191497444257   0.618768140378037   0.410696666666666   1.0
H150   H   0.380278174446531   0.016421259660973   0.542276636666664   1.0
H151   H   0.307519255330504   0.600547206327946   0.504446666666666   1.0
H152   H   0.239754559412866   0.986234993769017   0.479210026666664   1.0
H153   H   0.207765700123126   0.454774573107713   0.452780026666666   1.0
H154   H   0.101716019486354   0.504484899472480   0.502349979999998   1.0
H155   H   0.191751433291337   0.511794864470687   0.543146643333337   1.0
H156   H   0.154482738185706   0.389724947906707   0.510583369999999   1.0
H157   H   0.181834912080177   0.443894014325551   0.604343286666669   1.0
H158   H   0.104502753220523   0.342566809278324   0.605473326666669   1.0
H159   H   0.219818079379522   0.370875542170957   0.668239976666669   1.0
H160   H   0.331004793493257   0.356597617212806   0.637599946666668   1.0
H161   H   0.234577859501712   0.249680707334036   0.633643339999999   1.0
H162   H   0.310973061616245   0.533985097026573   0.422403336666669   1.0
H163   H   0.284978669128883   0.423709997268276   0.571316656666667   1.0
H164   H   0.409456361991879   0.267693865317831   0.675556693333334   1.0
H165   H   0.269472626500239   0.187391219262977   0.733366650000001   1.0
H166   H   0.385843916646564   0.111049270348083   0.702373376666664   1.0
H167   H   0.454339138707056   0.168333877133200   0.667936706666666   1.0
H168   H   0.268075170719300   0.160672820414547   0.624239986666666   1.0
H169   H   0.325081807256730   0.034252259349145   0.629216640000003   1.0
H170   H   0.421151362237929   0.085093559157734   0.605723316666669   1.0
H171   H   0.294752388001115   0.118939925036479   0.556400046666667   1.0
H172   H   0.338682479547216   0.295434799736064   0.717936706666670   1.0
H173   H   0.811210059826927   0.719536304311248   0.462946700000003   1.0
H174   H   0.261794940446279   0.990910440577039   0.563100053333336   1.0
H175   H   0.141160104097551   0.686872801728136   0.601866659999999   1.0
H176   H   0.192450161181810   0.563143129214673   0.447553380000002   1.0
H177   H   0.252203857079586   0.077098765111657   0.435639953333336   1.0
H178   H   0.471234618081709   0.127220683080871   0.437026723333332   1.0
H179   H   0.438420131658582   0.097074832775363   0.387996673333333   1.0
H180   H   0.635767747724145   0.061087693104241   0.443913396666666   1.0
H181   H   0.595839368980393   0.143175553720617   0.359550033333335   1.0
H182   H   0.724842743152102   0.114247123835426   0.365430006666664   1.0
H183   H   0.598475273401057   0.191555402619272   0.437080003333335   1.0
H184   H   0.683437409026631   0.247171816749983   0.364660013333335   1.0
H185   H   0.801602922511080   0.228491517766336   0.384530003333332   1.0
H186   H   0.753616001191837   0.364614064168236   0.382306673333332   1.0
H187   H   0.873551958796959   0.327716956323549   0.384953310000000   1.0
H188   H   0.779141851789525   0.273799305444690   0.457440060000003   1.0
H189   H   0.790646181615834   0.376777335753758   0.471196620000001   1.0
H190   H   0.785469775471306   0.459346049552138   0.418500010000002   1.0
H191   H   0.925906014782747   0.454618530898678   0.366470020000001   1.0
H192   H   0.068687099305301   0.531926974343428   0.385199993333330   1.0
H193   H   0.006884913144880   0.530626907147045   0.440343349999999   1.0
H194   H   0.823580008745985   0.547574063414608   0.404406610000002   1.0
H195   H   0.852281786219862   0.658494811591133   0.389143310000002   1.0
H196   H   0.984881776955895   0.638670487620139   0.400866700000002   1.0
H197   H   0.939570132724874   0.615284322892379   0.475123343333337   1.0
H198   H   0.315252510914661   0.662832391549493   0.441839979999998   1.0
H199   H   0.469567309865781   0.034703027250053   0.475303396666668   1.0
H200   H   0.868756567966741   0.471622048861633   0.460320029999998   1.0
H201   H   0.316729331322527   0.104497529830731   0.482446670000002   1.0
H202   H   0.529686268834986   0.006901263626006   0.388043340000003   1.0
H203   H   0.515244058375465   0.878273730750173   0.474293390000000   1.0
H204   H   0.892305567660415   0.808596263076168   0.508253353333330   1.0
H205   H   0.800983853014174   0.846641525430435   0.581543349999997   1.0
H206   H   0.799125723525364   0.771348228171938   0.647063320000001   1.0
H207   H   0.809622092419012   0.714969126383146   0.607919946666669   1.0
H208   H   0.639293034575743   0.807530257026748   0.612553280000000   1.0
H209   H   0.515752282578596   0.739763627187216   0.651856613333337   1.0
H210   H   0.637427187758270   0.748789709830305   0.679523340000003   1.0
H211   H   0.697498445379075   0.648125524927060   0.649929936666666   1.0
H212   H   0.495498240822229   0.657706176840563   0.702739970000003   1.0
H213   H   0.610217967055867   0.650781687360222   0.725486629999999   1.0
H214   H   0.546073666920002   0.556097310644525   0.667160033333332   1.0
H215   H   0.441929523353806   0.559754520399068   0.738143286666670   1.0
H216   H   0.496371577243657   0.459545397579873   0.703346633333332   1.0
H217   H   0.416165308927603   0.472419284978038   0.797713346666669   1.0
H218   H   0.405978776488681   0.410433115298318   0.770589956666669   1.0
H219   H   0.270274482355816   0.510945565175213   0.748253376666668   1.0
H220   H   0.196491397504850   0.431760988348849   0.793256633333336   1.0
H221   H   0.246026754771670   0.383090716607825   0.749720003333330   1.0
H222   H   0.137261670113446   0.431670078195125   0.694073359999997   1.0
H223   H   0.982150469838430   0.404609344986625   0.770323310000002   1.0
H224   H   0.062692632502923   0.354734379380169   0.746930059999997   1.0
H225   H   0.833139293860299   0.688792409922534   0.541549936666669   1.0
H226   H   0.548836629376353   0.556864296818929   0.771930060000003   1.0
H227   H   0.907771785062110   0.302896504093802   0.731189986666664   1.0
H228   H   0.036730038267947   0.235974879366601   0.430896633333333   1.0
H229   H   0.924659388315320   0.179548168909612   0.499780020000003   1.0
H230   H   0.163859538647614   0.171328244404208   0.501343283333334   1.0
H231   H   0.998371143453561   0.137667997349240   0.534873326666670   1.0
H232   H   0.003756687617099   0.268265797647636   0.544430033333335   1.0
H233   H   0.608368174187540   0.008534903488908   0.605736669999999   1.0
H234   H   0.832488116465100   0.220518376629606   0.567246626666666   1.0
H235   H   0.975528755711437   0.288571139461539   0.633943303333332   1.0
H236   H   0.844397693382561   0.230710141502563   0.676893363333335   1.0
H237   H   0.750940112751444   0.247254134204240   0.638526663333330   1.0
H238   H   0.914743017957285   0.181155857346838   0.604546610000000   1.0
H239   H   0.814870280835656   0.347918327773847   0.753219986666664   1.0
H240   H   0.074895849012464   0.275827178185836   0.476876703333332   1.0
H241   H   0.274958869099478   0.250933005534485   0.464429986666666   1.0
H242   H   0.165828513430192   0.343437770149507   0.438066610000000   1.0
H243   H   0.169552188030202   0.315176806252808   0.382859993333334   1.0
H244   H   0.374823579246538   0.303082960905748   0.393140029999998   1.0
H245   H   0.249702878876413   0.416586324421111   0.378153356666665   1.0
H246   H   0.314109171205111   0.368557242254269   0.345183310000003   1.0
H247   H   0.437181532165724   0.447065912054036   0.412640000000003   1.0
H248   H   0.353974088417942   0.505958198610017   0.348420016666665   1.0
H249   H   0.412854447894290   0.460832404566375   0.308559989999999   1.0
H250   H   0.707907287697360   0.299187387154738   0.704986699999999   1.0
H251   H   0.516038046049239   0.545862404613779   0.374650003333336   1.0
H252   H   0.533838660097707   0.555079077924226   0.322556686666665   1.0
H253   H   0.965707486343938   0.369237608124912   0.673320006666664   1.0
H254   H   0.448844869133239   0.198150617949423   0.517619959999998   1.0
H255   H   0.511051992738913   0.418705111649153   0.492636616666665   1.0
H256   H   0.577657588764481   0.561604867015909   0.537403359999999   1.0
H257   H   0.850281005245257   0.542937459248051   0.515683366666664   1.0
H258   H   0.940181334039984   0.639394159309482   0.640930050000001   1.0
H259   H   0.358523548944113   0.610210180028886   0.642626700000001   1.0
H260   H   0.323557444293236   0.714930114747595   0.553003313333335   1.0
H261   H   0.265740924925652   0.810481149484971   0.510233306666670   1.0
H262   H   0.146400265539626   0.900399004578013   0.468103283333335   1.0
H263   H   0.434402666613352   0.961431895932293   0.443736649999998   1.0
H264   H   0.752853668856950   0.988904220745248   0.403756713333337   1.0
H265   H   0.522342198453202   0.767327026814797   0.508643339999999   1.0
H266   H   0.557165341972379   0.607692527751276   0.476130040000001   1.0
H267   H   0.419079251550599   0.518970604830109   0.499530033333336   1.0
H268   H   0.333084923215516   0.417348843085094   0.474060059999999   1.0
H269   H   0.000689335298063   0.454089908720746   0.555506643333331   1.0
H270   H   0.194077802963548   0.272013921889077   0.581363296666666   1.0
H271   H   0.134863978668157   0.233006623848993   0.688573329999997   1.0
H272   H   0.407669871861700   0.200598839655385   0.779973349999999   1.0
H273   H   0.178007958661922   0.087450701715888   0.646846643333333   1.0
H274   H   0.130433700056237   0.069515727330931   0.555136616666665   1.0
H275   H   0.584612767710517   0.447273857114425   0.344133313333330   1.0
H276   H   0.365581855855261   0.300496051383774   0.533486683333336   1.0
H277   H   0.098635344453832   0.025061624128007   0.472476706666669   1.0
H278   H   0.947565388441497   0.975410636354525   0.437780000000004   1.0
H279   H   0.956243302220166   0.386869259785350   0.489660010000001   1.0
H280   H   0.631440755870102   0.338736367582634   0.453353373333336   1.0
H281   H   0.747795992067282   0.127879396042161   0.514530056666665   1.0
H282   H   0.022327510121890   0.385231325739305   0.407926686666670   1.0
H283   H   0.838673086954813   0.540242280846144   0.336676660000002   1.0
H284   H   0.734656136398165   0.629237107555753   0.459069953333334   1.0
H285   H   0.983174484720237   0.677066846028040   0.556710053333333   1.0
H286   H   0.978688628638480   0.784789745050404   0.587196606666666   1.0
H287   H   0.600309321966144   0.610565401271572   0.600770060000002   1.0
H288   H   0.712409205667903   0.528546966893650   0.708036676666666   1.0
H289   H   0.802476409785640   0.146429773236541   0.440670013333332   1.0
H290   H   0.629162079606658   0.426184339393998   0.727496719999998   1.0
H291   H   0.578221239584323   0.707533369117904   0.578456623333331   1.0
H292   H   0.763492697176041   0.784317324240149   0.513463340000001   1.0
H293   H   0.811170385453096   0.427947901046181   0.680456669999998   1.0
H294   H   0.768073955954598   0.356255451846820   0.635203296666667   1.0
H295   H   0.930757133935941   0.341583289677246   0.582400003333333   1.0
H296   H   0.095284809046689   0.171817859279763   0.584183376666665   1.0
H297   H   0.083835897897458   0.104735889494023   0.469506709999997   1.0
H298   H   0.198261992478656   0.185003657768732   0.398689973333333   1.0
H299   H   0.408193991221204   0.317820081803369   0.464130019999999   1.0
H300   H   0.510591477823823   0.364063784747771   0.397943306666669   1.0
H301   H   0.999445440066296   0.482303263949241   0.720819983333335   1.0
H302   H   0.305097776728125   0.504679788656162   0.684560013333332   1.0
O303   O   0.338158352248065   0.685629104893515   0.575516636666670   1.0
O304   O   0.297189912613007   0.592301157069599   0.656773376666663   1.0
O305   O   0.971328806013815   0.640880353995989   0.614133326666668   1.0
O306   O   0.887478068931912   0.524993723169537   0.541906609999998   1.0
O307   O   0.514505656111169   0.390379189024401   0.374236680000003   1.0
O308   O   0.572576283610495   0.398828880493632   0.499616626666665   1.0
O309   O   0.422493240549024   0.276845410906141   0.522799936666665   1.0
O310   O   0.502270792202367   0.168463967916566   0.519979986666669   1.0
O311   O   0.267717926682806   0.776461387004169   0.527569963333335   1.0
O312   O   0.614354614015348   0.551642864773591   0.565633393333336   1.0
O313   O   0.164200871648454   0.075967796001009   0.582513300000002   1.0
O314   O   0.426605957437914   0.205625382517041   0.749313356666669   1.0
O315   O   0.815513280403152   0.984116041880064   0.424209976666667   1.0
O316   O   0.540634982755662   0.911218898815278   0.461386619999999   1.0
O317   O   0.507352097356353   0.796753668608190   0.487299983333337   1.0
O318   O   0.573433716935909   0.639632518972775   0.458670043333335   1.0
O319   O   0.445724670580027   0.557622681627500   0.496566646666665   1.0
O320   O   0.340381443102032   0.454527616411774   0.492796706666667   1.0
O321   O   0.025003088916378   0.417899287166463   0.542810060000001   1.0
O322   O   0.225066116943033   0.306038151880294   0.569630050000001   1.0
O323   O   0.140874189773783   0.276286538786209   0.685506693333330   1.0
O324   O   0.202128620270734   0.111070927590617   0.669699986666664   1.0
O325   O   0.181318811755602   0.879006168466255   0.489986673333334   1.0
O326   O   0.758609771830827   0.092451288818687   0.533209993333337   1.0
O327   O   0.936140097716944   0.815308344318886   0.596950026666669   1.0
O328   O   0.695545373692504   0.564074745964405   0.698929980000003   1.0
O329   O   0.011743908419511   0.961345279961719   0.454553349999998   1.0
O330   O   0.986723550789286   0.707641806991923   0.535383353333330   1.0
O331   O   0.792234156963382   0.614149059598589   0.471843336666666   1.0
O332   O   0.889875911230334   0.566219649279027   0.345803323333335   1.0
O333   O   0.594870780715297   0.023441044474993   0.384576670000001   1.0
O334   O   0.934877719006636   0.358066617834019   0.466513319999997   1.0
O335   O   0.628907979414549   0.309227408334984   0.433796693333335   1.0
O336   O   0.738514745155307   0.155438336825689   0.453413393333335   1.0
O337   O   0.626105334644727   0.738481079044767   0.570946630000002   1.0
O338   O   0.043327830263991   0.424654674227881   0.406326676666666   1.0
O339   O   0.136261283595964   0.046411232418343   0.496153386666670   1.0
O340   O   0.560960489198607   0.642886738488691   0.613719940000003   1.0
O341   O   0.604549096890729   0.445748655125534   0.752266693333333   1.0
O342   O   0.321723395728149   0.465958454614395   0.694126640000000   1.0
O343   O   0.071577111857707   0.491208017502515   0.731863279999999   1.0
O344   O   0.882095105150903   0.438767799616620   0.691133373333336   1.0
O345   O   0.732766510363234   0.360961148596843   0.661056646666665   1.0
O346   O   0.868581816522287   0.325450723919111   0.596586613333336   1.0
O347   O   0.095062499167334   0.214291611746113   0.581753286666668   1.0
O348   O   0.070767236967200   0.140345986019021   0.452580006666665   1.0
O349   O   0.247384536178778   0.214582038921662   0.404956689999999   1.0
O350   O   0.403223690153766   0.992487710078180   0.424583310000003   1.0
O351   O   0.365327898576645   0.349920249089315   0.452369946666664   1.0
O352   O   0.614545117702683   0.486181478974046   0.345130030000000   1.0


# Number_of_total_atoms: 352
# Number_of_atom_type: 3
# Name_of_each_atom: C H O
# Number_of_each_atom: 100 202 50
# Created_by: Lihua Chen (lihua.chen@mse.gatech.edu)
# Tool: VASP
# K-points: 1 1 1
# Pseudopotential: PBE-HSE06
# Material_class: MC_Pol
# Geometry_class: GC_PD
# Bandgap_(eV): 5.63
