#======================================================================

# Note: Disordered slab of isotactic polyvinyl alcohol
# Common_name: Disordered slab-5

#----------------------------------------------------------------------

data_1
_audit_creation_method   'vasp2cif'
_cell_length_a    12.2480946
_cell_length_b    23.4351044
_cell_length_c    30.0
_cell_angle_alpha    90.0
_cell_angle_beta    90.0
_cell_angle_gamma    90.0

_symmetry_space_group_name_H-M    'P 1'
loop_
_atom_site_label
_atom_site_type_symbol
_atom_site_fract_x
_atom_site_fract_y
_atom_site_fract_z
_atom_site_occupancy
C1   C   0.684045026889322   0.084836472928195   0.567983373333334   1.0
C2   C   0.576501793185038   0.179886226578958   0.561906686666667   1.0
C3   C   0.628403768207342   0.135486991899214   0.592996726666669   1.0
C4   C   0.504947806330627   0.282757417543230   0.548216629999999   1.0
C5   C   0.554947428312644   0.238068118015299   0.582520039999999   1.0
C6   C   0.589760941265098   0.386089592159017   0.549739966666664   1.0
C7   C   0.497509857574094   0.345671726557363   0.564383319999997   1.0
C8   C   0.648088332041461   0.492114428131160   0.568083316666666   1.0
C9   C   0.567945270442308   0.442645828366779   0.575326666666669   1.0
C10   C   0.843310526030720   0.534153882412404   0.586263276666664   1.0
C11   C   0.018243474376824   0.583037786680393   0.618326696666664   1.0
C12   C   0.063189314360784   0.908929166110305   0.518606696666666   1.0
C13   C   0.933675610245530   0.535741283064219   0.621533329999998   1.0
C14   C   0.224218410266033   0.602602444561761   0.629836653333335   1.0
C15   C   0.120226667746344   0.573419775334990   0.647606660000001   1.0
C16   C   0.313962924486233   0.705337233317380   0.616290030000002   1.0
C17   C   0.215678232922855   0.671016993634559   0.633173373333335   1.0
C18   C   0.241788530927906   0.783297184714058   0.558786646666668   1.0
C19   C   0.287869135171441   0.770538555825681   0.606896720000002   1.0
C20   C   0.155064788608016   0.863889895877740   0.510986709999997   1.0
C21   C   0.216405007191895   0.848276647745593   0.551990000000004   1.0
C22   C   0.980205337408158   0.921005109753210   0.481919990000002   1.0
C23   C   0.281019057445882   0.030580273412397   0.530123393333334   1.0
C24   C   0.777194184963271   0.957983822764618   0.467846680000001   1.0
C25   C   0.728852110596861   0.036502922513115   0.595333353333331   1.0
C26   C   0.237240852140381   0.339928137892144   0.639860026666668   1.0
C27   C   0.140401299643784   0.434495747328526   0.534946696666665   1.0
C28   C   0.603534455065365   0.895658608629880   0.438796616666664   1.0
C29   C   0.717854424475135   0.898090818831598   0.460006713333335   1.0
C30   C   0.564132465142784   0.788537144302204   0.456670000000003   1.0
C31   C   0.562279164630226   0.836119641950475   0.422450003333331   1.0
C32   C   0.484095607818055   0.685849400355139   0.466419986666665   1.0
C33   C   0.482748426845106   0.741257730432814   0.441109976666667   1.0
C34   C   0.377352343441238   0.587556640029305   0.484143320000001   1.0
C35   C   0.399143569645517   0.642167038948628   0.452896626666664   1.0
C36   C   0.270592872461975   0.487766165018662   0.482023366666667   1.0
C37   C   0.246180928419676   0.033136199726080   0.481503296666666   1.0
C38   C   0.304671675217136   0.545047736164555   0.459963353333336   1.0
C39   C   0.178905207018893   0.494329011822110   0.517866643333335   1.0
C40   C   0.205758314440189   0.418357538872328   0.580119959999998   1.0
C41   C   0.223034577149654   0.274056820502153   0.657436626666666   1.0
C42   C   0.876556505368598   0.950089789230894   0.498380026666666   1.0
C43   C   0.323417521611894   0.192546699301239   0.709030023333334   1.0
C44   C   0.323001113985519   0.252691522039903   0.689863333333335   1.0
C45   C   0.296605220537728   0.141716957744812   0.630126699999998   1.0
C46   C   0.359978285928655   0.147498800986782   0.676313273333335   1.0
C47   C   0.244572588457963   0.081290536089952   0.562046686666669   1.0
C48   C   0.304639131379666   0.080825319472439   0.608166629999999   1.0
C49   C   0.175386267836302   0.356710614867154   0.596533333333333   1.0
C50   C   0.599893105005897   0.583353573624365   0.703046669999999   1.0
C51   C   0.749345053229746   0.489029317061629   0.596969986666664   1.0
C52   C   0.986818708927999   0.238546029263688   0.549539950000003   1.0
C53   C   0.609290558549411   0.735983591351101   0.649239986666664   1.0
C54   C   0.604277574733949   0.081533726813696   0.402640023333333   1.0
C55   C   0.478698768378223   0.094830006389898   0.408029936666665   1.0
C56   C   0.686518897396496   0.178605984789215   0.420853296666664   1.0
C57   C   0.674247519283533   0.131305252474149   0.385250030000002   1.0
C58   C   0.731685090022083   0.285731682082883   0.436649959999997   1.0
C59   C   0.743001078714727   0.233118227542441   0.404903283333333   1.0
C60   C   0.834100881291363   0.374909902257571   0.461016720000003   1.0
C61   C   0.803818693562341   0.333002625753181   0.424716696666664   1.0
C62   C   0.906732799075542   0.457644758774791   0.401726660000001   1.0
C63   C   0.575693422550799   0.645333212170371   0.694600043333331   1.0
C64   C   0.834925605489687   0.438553617025917   0.441350046666663   1.0
C65   C   0.927054131342196   0.521804801518186   0.401796723333334   1.0
C66   C   0.856520776709218   0.626156937453203   0.465863293333335   1.0
C67   C   0.848837867401841   0.619470383071985   0.411806616666667   1.0
C68   C   0.861974612769565   0.709134984694160   0.523360063333335   1.0
C69   C   0.867493863086260   0.689476399345594   0.474463273333335   1.0
C70   C   0.850168702975239   0.803113665668157   0.573050053333333   1.0
C71   C   0.850405719433290   0.777118492375905   0.525719960000004   1.0
C72   C   0.661143472879445   0.770427542878792   0.608089956666667   1.0
C73   C   0.785865019363911   0.769288264830600   0.610163370000002   1.0
C74   C   0.430446389595978   0.055252717372149   0.440116626666665   1.0
C75   C   0.827855011831801   0.558258720622554   0.396619986666664   1.0
C76   C   0.523677152199660   0.489349336971593   0.727209983333331   1.0
C77   C   0.635041437384068   0.671669728085362   0.652856700000001   1.0
C78   C   0.761199860425634   0.317530179212689   0.691696676666666   1.0
C79   C   0.317832881532446   0.465551653356407   0.726796723333337   1.0
C80   C   0.428323536952433   0.455656276060800   0.749796676666669   1.0
C81   C   0.111882545387914   0.437346133606297   0.727633286666666   1.0
C82   C   0.226014550867362   0.424062552928078   0.744266636666666   1.0
C83   C   0.920832869791845   0.387967228343136   0.713373313333335   1.0
C84   C   0.023534117706767   0.392238495852403   0.742149990000001   1.0
C85   C   0.528412623462266   0.552613292390539   0.736956659999997   1.0
C86   C   0.843890134552034   0.336266955141021   0.728579966666665   1.0
C87   C   0.886329568355883   0.287348871379464   0.619956716666664   1.0
C88   C   0.890860885414781   0.241908514817624   0.585606640000002   1.0
C89   C   0.813910059120545   0.271018749974075   0.663329953333331   1.0
C90   C   0.065671275922376   0.184208771862778   0.479463323333334   1.0
C91   C   0.972359227205835   0.192115666444394   0.514700063333336   1.0
C92   C   0.201806769193311   0.243978063950934   0.432233306666667   1.0
C93   C   0.086662222546842   0.238272892012375   0.450686646666668   1.0
C94   C   0.337917654555021   0.327207925730427   0.410270056666668   1.0
C95   C   0.220911716341575   0.299548522600141   0.407153319999999   1.0
C96   C   0.465847773579412   0.405372651124182   0.375709980000003   1.0
C97   C   0.355030553078841   0.378122958137965   0.378469976666665   1.0
C98   C   0.560695277451565   0.500098156166096   0.359373346666665   1.0
C99   C   0.460067380603021   0.464066641836681   0.351766650000002   1.0
C100   C   0.311162497063016   0.072406325614665   0.451603316666663   1.0
H101   H   0.502808600122997   0.234347195824739   0.610746640000002   1.0
H102   H   0.490831235088599   0.342334796682195   0.601396686666668   1.0
H103   H   0.552579615118255   0.273071205093501   0.515689976666664   1.0
H104   H   0.629954956422367   0.258819098753406   0.590653356666664   1.0
H105   H   0.669348838961447   0.369823447426164   0.557196679999997   1.0
H106   H   0.566304231516959   0.120910632683163   0.615450033333332   1.0
H107   H   0.680158724443558   0.158896288083106   0.616403326666664   1.0
H108   H   0.639948363886738   0.071407853425221   0.538899993333331   1.0
H109   H   0.793849722551947   0.014390629298838   0.578180060000001   1.0
H110   H   0.619986140538138   0.186623892317712   0.531349946666666   1.0
H111   H   0.480715424911885   0.699077312410012   0.500603356666666   1.0
H112   H   0.142613856036022   0.527936611197688   0.647320049999998   1.0
H113   H   0.563512058438867   0.431107539678806   0.611283366666669   1.0
H114   H   0.487875705989403   0.459526461507892   0.566419986666666   1.0
H115   H   0.674223066500481   0.489263875436372   0.533509953333336   1.0
H116   H   0.776761578898977   0.446618569362975   0.596686679999998   1.0
H117   H   0.722328434661179   0.492946380900271   0.631779993333332   1.0
H118   H   0.802642951500388   0.575143586729659   0.589796703333334   1.0
H119   H   0.972832639617266   0.493654788241521   0.618370056666663   1.0
H120   H   0.905132558332788   0.538450872017449   0.656626639999999   1.0
H121   H   0.053996023185519   0.584936579160278   0.586063386666666   1.0
H122   H   0.674255773628659   0.003718805707564   0.605649946666666   1.0
H123   H   0.417293298828703   0.360213902012745   0.558513386666668   1.0
H124   H   0.098745800020190   0.586246609594795   0.682639950000002   1.0
H125   H   0.728002786653853   0.988753896910310   0.486486690000000   1.0
H126   H   0.193201340884485   0.684693032560162   0.667666626666666   1.0
H127   H   0.368836765842744   0.707197609070604   0.642316690000001   1.0
H128   H   0.356606349203083   0.796670297743582   0.611156719999997   1.0
H129   H   0.223965350496229   0.788507355657437   0.627266693333333   1.0
H130   H   0.162633231131316   0.759845243104614   0.554093296666665   1.0
H131   H   0.290016440598031   0.875739738543686   0.555453363333335   1.0
H132   H   0.162135227139736   0.863040849094745   0.579173279999999   1.0
H133   H   0.124259972649135   0.824466269499531   0.494260026666666   1.0
H134   H   0.097643571433551   0.951122283031090   0.524069976666667   1.0
H135   H   0.014300020184365   0.903309451439867   0.548293306666665   1.0
H136   H   0.958675572280441   0.879900159523082   0.471393329999998   1.0
H137   H   0.908292241635692   0.989487855663235   0.510139973333331   1.0
H138   H   0.852242666381755   0.922212751055632   0.524273299999997   1.0
H139   H   0.713167997575724   0.874950273317324   0.492070006666665   1.0
H140   H   0.771764638395268   0.874357111888948   0.438426716666669   1.0
H141   H   0.607396304728084   0.925652070062895   0.408513386666669   1.0
H142   H   0.591565344376093   0.819853492950514   0.390519970000000   1.0
H143   H   0.478625271231984   0.844193060219524   0.408666609999997   1.0
H144   H   0.647827181217231   0.773239678846920   0.457749939999999   1.0
H145   H   0.489663755536313   0.731767668165368   0.405606716666668   1.0
H146   H   0.400678567587157   0.759840847988713   0.445040003333332   1.0
H147   H   0.936720990055058   0.704624593010131   0.453223293333330   1.0
H148   H   0.226618767297893   0.589865142653260   0.595943326666664   1.0
H149   H   0.411594494052977   0.629788169409650   0.417846679999997   1.0
H150   H   0.372380157808379   0.026261961094569   0.532946653333333   1.0
H151   H   0.356067530699839   0.601693500456520   0.517716726666670   1.0
H152   H   0.251618574206638   0.989534738321879   0.469216663333334   1.0
H153   H   0.222071096674910   0.469511533304711   0.455926640000001   1.0
H154   H   0.110804761419786   0.515293228222191   0.498509980000002   1.0
H155   H   0.194221809815218   0.523515914014872   0.543620046666668   1.0
H156   H   0.144899917739039   0.402155362277796   0.509863283333331   1.0
H157   H   0.185779745692038   0.450006610595686   0.606143316666667   1.0
H158   H   0.086833677786913   0.357022168845127   0.597673293333337   1.0
H159   H   0.207203453506963   0.372059353829890   0.663150026666663   1.0
H160   H   0.317441065486221   0.350813525712304   0.630243300000004   1.0
H161   H   0.230643826020092   0.250323279976513   0.625540033333337   1.0
H162   H   0.345763756592803   0.533091271400522   0.428913373333330   1.0
H163   H   0.294800817426740   0.419377338041642   0.574566650000001   1.0
H164   H   0.401478692040804   0.263546959065394   0.674183273333334   1.0
H165   H   0.250467293092264   0.182071017358048   0.722699993333336   1.0
H166   H   0.347266047406265   0.107686787177272   0.691966630000003   1.0
H167   H   0.445599791497365   0.153835551080370   0.672316613333336   1.0
H168   H   0.327858987960461   0.172094411493212   0.606646730000001   1.0
H169   H   0.256141645084945   0.047716954058032   0.626783373333332   1.0
H170   H   0.388823597100561   0.069150624308719   0.604540000000000   1.0
H171   H   0.266641327215090   0.122847841889708   0.549840036666666   1.0
H172   H   0.317400259139084   0.279275615260325   0.718613306666668   1.0
H173   H   0.802830760304545   0.708691090789422   0.457753373333332   1.0
H174   H   0.253161671367238   0.988386994341703   0.546713383333334   1.0
H175   H   0.148802565584361   0.682392991601098   0.613949966666667   1.0
H176   H   0.232546179060371   0.568956428459522   0.449053319999997   1.0
H177   H   0.265898354508138   0.083377174970039   0.422506713333334   1.0
H178   H   0.460483633103223   0.139161035698223   0.415743383333336   1.0
H179   H   0.432283336544444   0.088326899025887   0.378663316666668   1.0
H180   H   0.637164298192147   0.065882061954888   0.434039943333332   1.0
H181   H   0.633547400915731   0.149303836683572   0.356793340000003   1.0
H182   H   0.759240518929367   0.113012204033538   0.374696669999999   1.0
H183   H   0.605142950153244   0.192841163532428   0.426453273333337   1.0
H184   H   0.704888979221309   0.241946931544284   0.374953333333330   1.0
H185   H   0.833537773295774   0.224016548439188   0.396966679999999   1.0
H186   H   0.764596249934257   0.354308351193005   0.397723326666664   1.0
H187   H   0.879291673661633   0.319689252163094   0.407430013333332   1.0
H188   H   0.765437172570500   0.272320152326692   0.469510013333334   1.0
H189   H   0.782631830750226   0.369379715671336   0.491309993333331   1.0
H190   H   0.749181542082475   0.448978183344472   0.431226606666670   1.0
H191   H   0.862660433729829   0.448214435946781   0.369923336666666   1.0
H192   H   0.975249505339384   0.536027119213514   0.372466660000001   1.0
H193   H   0.968938237952536   0.534627564961902   0.432356646666669   1.0
H194   H   0.764727062117892   0.542077871007905   0.416159950000001   1.0
H195   H   0.784901383762993   0.646848016601965   0.401750056666664   1.0
H196   H   0.917436480283229   0.635783410463489   0.396360020000003   1.0
H197   H   0.917950690877255   0.602265334905013   0.483149973333333   1.0
H198   H   0.317800321365901   0.665123975295799   0.452096686666664   1.0
H199   H   0.478192665167690   0.057821504733731   0.470353316666667   1.0
H200   H   0.844233045032162   0.468384949887401   0.468216706666666   1.0
H201   H   0.326013794831404   0.110934026818335   0.470020040000001   1.0
H202   H   0.562932294791388   0.007798160267640   0.377130000000001   1.0
H203   H   0.506531701673829   0.887794193056806   0.484866716666666   1.0
H204   H   0.914015491029929   0.796533729117932   0.506159973333332   1.0
H205   H   0.825544660636439   0.846207098612282   0.566116713333336   1.0
H206   H   0.805533229633937   0.789390581934001   0.641513316666668   1.0
H207   H   0.817420735793469   0.725618764471989   0.612646613333332   1.0
H208   H   0.635376248645237   0.817574778971327   0.613903299999997   1.0
H209   H   0.518582563854466   0.738923509980182   0.648803330000000   1.0
H210   H   0.647280108368854   0.759448394008437   0.677776719999997   1.0
H211   H   0.721177308672978   0.661450097913793   0.653726706666667   1.0
H212   H   0.488316574563363   0.655459085558839   0.689263279999999   1.0
H213   H   0.601256647707473   0.670248846853866   0.724536643333330   1.0
H214   H   0.582608751242013   0.561548609956269   0.672826639999997   1.0
H215   H   0.441770640798282   0.570978932784271   0.737463380000001   1.0
H216   H   0.520819573029755   0.485910017964329   0.690316646666666   1.0
H217   H   0.416501428720189   0.469050711803099   0.782789993333331   1.0
H218   H   0.452213016055573   0.410638328541005   0.752190020000000   1.0
H219   H   0.290677653649084   0.509012155286150   0.735106660000000   1.0
H220   H   0.234946536092231   0.419351782362874   0.781246693333330   1.0
H221   H   0.251561430624484   0.382219410979026   0.734060033333336   1.0
H222   H   0.105865282915104   0.445611464824538   0.693170039999998   1.0
H223   H   0.004919385583449   0.397371833342461   0.778023276666666   1.0
H224   H   0.069753478226730   0.351619922802648   0.740670013333336   1.0
H225   H   0.796054179725232   0.683690160987716   0.539363353333336   1.0
H226   H   0.552342908912543   0.560025339592684   0.770226670000000   1.0
H227   H   0.900617439711809   0.301298047556387   0.738073350000001   1.0
H228   H   0.028114487293394   0.239070823170728   0.422326660000003   1.0
H229   H   0.895294097418223   0.200701179722501   0.496303306666668   1.0
H230   H   0.136947603262307   0.166005251506370   0.497193273333330   1.0
H231   H   0.964366114546500   0.149794608979853   0.533309940000002   1.0
H232   H   0.997914198017376   0.279787552386580   0.535093306666667   1.0
H233   H   0.762596102090853   0.057104631460483   0.626986696666670   1.0
H234   H   0.821380543550013   0.248714552344815   0.566060006666667   1.0
H235   H   0.967207503443028   0.295784959251130   0.631239953333335   1.0
H236   H   0.866285740477544   0.240372387673254   0.682479986666664   1.0
H237   H   0.746887381160498   0.244507252973875   0.652626673333330   1.0
H238   H   0.895008501975482   0.200577305727727   0.601293310000003   1.0
H239   H   0.799271169900990   0.347638724408668   0.758300020000000   1.0
H240   H   0.077575135645993   0.276821915928821   0.472606659999997   1.0
H241   H   0.251675725953326   0.250173846035864   0.461509960000001   1.0
H242   H   0.170430435767535   0.332238874088397   0.419636663333335   1.0
H243   H   0.201284149127979   0.296361026665622   0.372693316666670   1.0
H244   H   0.391428116500670   0.291185035215804   0.401886623333333   1.0
H245   H   0.298752370838152   0.411658127710325   0.388446680000001   1.0
H246   H   0.328152845912868   0.368393938112774   0.346110026666665   1.0
H247   H   0.491108894603087   0.413808734728740   0.410896683333334   1.0
H248   H   0.392416041593933   0.491551055347550   0.360360020000002   1.0
H249   H   0.458948798452290   0.454171260273966   0.315516663333334   1.0
H250   H   0.703443840154534   0.292861968218922   0.709473293333332   1.0
H251   H   0.582421097564023   0.497964634627358   0.394100000000002   1.0
H252   H   0.548595354578666   0.545000857773012   0.349796676666664   1.0
H253   H   0.955099481351162   0.382586305013433   0.681693396666667   1.0
H254   H   0.428829803453674   0.189478677978492   0.541566723333332   1.0
H255   H   0.518909128935043   0.406652892913932   0.494063313333335   1.0
H256   H   0.581245371831145   0.552438469188132   0.539043300000003   1.0
H257   H   0.858586322479908   0.556697037799417   0.525656636666668   1.0
H258   H   0.970236366397756   0.641701984481024   0.662333300000000   1.0
H259   H   0.376242015635640   0.596999823905200   0.639563369999998   1.0
H260   H   0.348360176773944   0.697020624324594   0.556323370000001   1.0
H261   H   0.345265744436688   0.800480743751244   0.517833330000002   1.0
H262   H   0.181550532766131   0.888703141429147   0.449060060000001   1.0
H263   H   0.475922793738057   0.974429190082894   0.436166636666670   1.0
H264   H   0.737269738266065   0.987866514475606   0.409019979999997   1.0
H265   H   0.549036214988085   0.789941093669718   0.521956636666665   1.0
H266   H   0.562752740332364   0.619346509077211   0.463859939999999   1.0
H267   H   0.459079447345225   0.523682433435198   0.500496673333330   1.0
H268   H   0.346751681686065   0.414781655506516   0.482263310000000   1.0
H269   H   0.010079526982096   0.472020576959750   0.554246650000003   1.0
H270   H   0.175647573786705   0.286644859154116   0.567023339999999   1.0
H271   H   0.104730355364822   0.232806835714371   0.694269943333332   1.0
H272   H   0.433834679885635   0.216468090494189   0.753553390000000   1.0
H273   H   0.159089839165681   0.115956513511414   0.616876730000001   1.0
H274   H   0.105269320829706   0.061776985299026   0.538199996666670   1.0
H275   H   0.641377149389427   0.433420441685762   0.337679989999998   1.0
H276   H   0.340334365150966   0.292098216554137   0.547796633333334   1.0
H277   H   0.100909459010872   0.010358481697224   0.468700026666667   1.0
H278   H   0.955295381209744   0.956042380592081   0.425836689999997   1.0
H279   H   0.959638897629027   0.388436511509631   0.500609969999999   1.0
H280   H   0.615895683888660   0.336847255521505   0.456366729999999   1.0
H281   H   0.763641023804631   0.132150062024046   0.523703386666668   1.0
H282   H   0.996052651324234   0.397905255331402   0.417476653333331   1.0
H283   H   0.754341683481115   0.524173043581577   0.344193333333337   1.0
H284   H   0.701027276520222   0.616393733667344   0.473946636666668   1.0
H285   H   0.948502602192505   0.666843715874379   0.568183390000002   1.0
H286   H   0.994811821587334   0.771174362679602   0.583080036666665   1.0
H287   H   0.613650428532779   0.615211810193600   0.604376729999998   1.0
H288   H   0.719642474022038   0.537665635489979   0.724353283333336   1.0
H289   H   0.816261510586308   0.144503375884255   0.453203330000001   1.0
H290   H   0.606914646136062   0.427109247270941   0.726823300000000   1.0
H291   H   0.627211680745837   0.712698011279180   0.569749960000003   1.0
H292   H   0.777194184963271   0.788874253958944   0.509810003333335   1.0
H293   H   0.782313217926976   0.431133261774590   0.703976693333331   1.0
H294   H   0.761224468334852   0.365970351725849   0.637703323333334   1.0
H295   H   0.907108416683847   0.353488930904866   0.577846653333332   1.0
H296   H   0.078350815481130   0.183875890904929   0.579899980000000   1.0
H297   H   0.053457204682267   0.101341575418800   0.457666653333334   1.0
H298   H   0.191323440627244   0.168578433983846   0.401353326666666   1.0
H299   H   0.368640865984169   0.310024366693241   0.472386676666666   1.0
H300   H   0.562891488444251   0.337018007907829   0.376736639999997   1.0
H301   H   0.003530932884857   0.502880341339548   0.731079993333331   1.0
H302   H   0.332292355090075   0.504314079351829   0.668280029999998   1.0
O303   O   0.358720955666037   0.673022403945424   0.580416616666668   1.0
O304   O   0.318910649171507   0.577503362861059   0.649769973333335   1.0
O305   O   0.966635985976140   0.636470490824870   0.629883319999998   1.0
O306   O   0.884884421124575   0.530603550458260   0.543653360000000   1.0
O307   O   0.547387076843776   0.369686874533400   0.357153320000002   1.0
O308   O   0.585670484615626   0.392059277534088   0.503129960000003   1.0
O309   O   0.394122331484930   0.263401924507747   0.539739990000001   1.0
O310   O   0.478045654546136   0.157104113434201   0.545849990000001   1.0
O311   O   0.313399661364471   0.765430778281491   0.526596706666666   1.0
O312   O   0.581473970653363   0.543835861896142   0.570716603333331   1.0
O313   O   0.127248200711968   0.078521211964393   0.566176606666666   1.0
O314   O   0.394587799803574   0.184434868572637   0.746370059999997   1.0
O315   O   0.804063792910284   0.979033504967020   0.427323280000003   1.0
O316   O   0.523611901234005   0.918351027273424   0.467666626666670   1.0
O317   O   0.526044965394043   0.811319253179860   0.496989953333333   1.0
O318   O   0.582625104806098   0.659760308129883   0.457583363333335   1.0
O319   O   0.479547945359599   0.559449272178192   0.486736680000000   1.0
O320   O   0.367612134543769   0.453633609586142   0.492963283333332   1.0
O321   O   0.025893676556024   0.435959273985567   0.541770046666670   1.0
O322   O   0.207097404358713   0.319309492813694   0.561943313333330   1.0
O323   O   0.124349823359466   0.270532210643786   0.681686656666663   1.0
O324   O   0.183183472472528   0.146577157983557   0.635753376666663   1.0
O325   O   0.231141838176200   0.882703667409309   0.476389949999998   1.0
O326   O   0.778500412627444   0.109005283543773   0.548353323333330   1.0
O327   O   0.957973250794453   0.806335345363344   0.587530010000002   1.0
O328   O   0.713510908055852   0.574589004177852   0.713643393333335   1.0
O329   O   0.022342030245262   0.950725429667813   0.443723296666668   1.0
O330   O   0.960300110680073   0.691810457648316   0.544006730000000   1.0
O331   O   0.768801165203278   0.601505816206220   0.488279980000002   1.0
O332   O   0.800128282810618   0.558203214149110   0.350643349999999   1.0
O333   O   0.625015477917685   0.032628499832924   0.375633303333331   1.0
O334   O   0.940803192359404   0.359987805302886   0.476929983333335   1.0
O335   O   0.622582413757648   0.303700477647538   0.435090000000002   1.0
O336   O   0.744291116105522   0.154752961117595   0.459713363333336   1.0
O337   O   0.625260430303989   0.751157344961520   0.565323386666670   1.0
O338   O   0.009335941934999   0.431615405988971   0.404240036666664   1.0
O339   O   0.135192260843574   0.047132420711556   0.475806683333332   1.0
O340   O   0.604702089743817   0.651661334182066   0.611573283333335   1.0
O341   O   0.625186933157750   0.464958500462238   0.736933389999997   1.0
O342   O   0.328005990417481   0.465082203772901   0.679973349999997   1.0
O343   O   0.071688538395186   0.490582533952782   0.745453390000002   1.0
O344   O   0.854830832217772   0.439373033046955   0.712726719999999   1.0
O345   O   0.716376578280183   0.362134183622409   0.665950013333337   1.0
O346   O   0.853050881889828   0.339889725432585   0.599996693333331   1.0
O347   O   0.087250093577822   0.225608182057002   0.572826640000002   1.0
O348   O   0.025877322991939   0.139903460383131   0.451089986666666   1.0
O349   O   0.242384493013304   0.197505051438988   0.408663306666668   1.0
O350   O   0.427000955724168   0.000595111494363   0.419363276666665   1.0
O351   O   0.365399578151525   0.342663278257042   0.455656686666664   1.0
O352   O   0.649949878734610   0.474145632566504   0.336359976666664   1.0


# Number_of_total_atoms: 352
# Number_of_atom_type: 3
# Name_of_each_atom: C H O
# Number_of_each_atom: 100 202 50
# Created_by: Lihua Chen (lihua.chen@mse.gatech.edu)
# Tool: VASP
# K-points: 1 1 1
# Pseudopotential: PBE-HSE06
# Material_class: MC_Pol
# Geometry_class: GC_PD
# Bandgap_(eV): 5.37
