#======================================================================

# Note: Disordered slab of polyketone
# Common_name: Disordered slab-1

#----------------------------------------------------------------------

data_1
_audit_creation_method   'vasp2cif'
_cell_length_a    23.4847031
_cell_length_b    8.9427224
_cell_length_c    38.0
_cell_angle_alpha    90.0
_cell_angle_beta    90.0
_cell_angle_gamma    90.0

_symmetry_space_group_name_H-M    'P 1'
loop_
_atom_site_label
_atom_site_type_symbol
_atom_site_fract_x
_atom_site_fract_y
_atom_site_fract_z
_atom_site_occupancy
C1   C   0.694466905992094   0.231859998248410   0.280147352631580   1.0
C2   C   0.944016720398736   0.356150985968213   0.520207857894739   1.0
C3   C   0.723558382988458   0.822608717005458   0.205568415789472   1.0
C4   C   0.827838917835841   0.743896735517588   0.213710484210523   1.0
C5   C   0.870398387110122   0.614394773117411   0.209852621052633   1.0
C6   C   0.971715495096042   0.547043638523320   0.231426339473685   1.0
C7   C   0.985733160067070   0.537717954881387   0.270350005263161   1.0
C8   C   0.939094341797322   0.544516645177310   0.330621018421056   1.0
C9   C   0.897071230165992   0.494632685903348   0.357794713157894   1.0
C10   C   0.857700977279976   0.556750235252743   0.419165763157892   1.0
C11   C   0.847404658055908   0.697054232612658   0.440639497368423   1.0
C12   C   0.750243570249779   0.573546004290598   0.461926310526316   1.0
C13   C   0.717899209890376   0.547804212283275   0.495834252631582   1.0
C14   C   0.619051734999367   0.454096584726820   0.519263118421051   1.0
C15   C   0.487140644328605   0.169787245101112   0.531734165789473   1.0
C16   C   0.659222781487919   0.792718523835653   0.198297400000001   1.0
C17   C   0.961696283910015   0.075084428428639   0.358231594736843   1.0
C18   C   0.591599865701518   0.570694378257791   0.210905276315792   1.0
C19   C   0.823593562909466   0.968056729570407   0.310244710526312   1.0
C20   C   0.578583107571838   0.455662092340027   0.365063115789475   1.0
C21   C   0.943173367177891   0.472513739216595   0.293231563157896   1.0
C22   C   0.905548948583473   0.576609623932868   0.392249963157894   1.0
C23   C   0.303727484636582   0.455919318260399   0.529247384210528   1.0
C24   C   0.437269730695469   0.621585033210913   0.481357876315791   1.0
C25   C   0.574329304593164   0.844123205702999   0.465676357894736   1.0
C26   C   0.697651898354209   0.032804518230378   0.414405221052633   1.0
C27   C   0.768255469237758   0.157352720688280   0.481342115789474   1.0
C28   C   0.978021800071211   0.149088783075719   0.458236794736841   1.0
C29   C   0.805228531928940   0.653029641175038   0.469955247368418   1.0
C30   C   0.659605801020327   0.490036389813461   0.488331544736845   1.0
C31   C   0.534452262247250   0.287872057842250   0.536902678947371   1.0
C32   C   0.050767220472117   0.760233941735684   0.498205284210528   1.0
C33   C   0.208835920944644   0.797638591576991   0.484760486842106   1.0
C34   C   0.324238584902524   0.038272718831124   0.437518471052634   1.0
C35   C   0.473046308173252   0.206487612765436   0.416534223684209   1.0
C36   C   0.718116542848691   0.679453093612743   0.345244757894740   1.0
C37   C   0.924433764717257   0.662679946321489   0.228144697368421   1.0
C38   C   0.568431678406014   0.469371631171285   0.241276289473681   1.0
C39   C   0.647351181544209   0.195718856262381   0.306847321052629   1.0
C40   C   0.002867598526294   0.288923124796988   0.515739442105264   1.0
C41   C   0.796686814405589   0.843698335084177   0.332892068421053   1.0
C42   C   0.866383037220515   0.061252041101042   0.329663126315786   1.0
C43   C   0.107859596487721   0.831263821853625   0.499013200000000   1.0
C44   C   0.150649066540680   0.735476246025485   0.477486860526312   1.0
C45   C   0.238152846820533   0.876618891804135   0.453473644736839   1.0
C46   C   0.294440528822356   0.938624674293813   0.465876328947367   1.0
C47   C   0.003050819918606   0.852633276417031   0.514484205263159   1.0
C48   C   0.410303207111866   0.180086345965520   0.415576334210527   1.0
C49   C   0.491292116867342   0.310605683119490   0.386792134210523   1.0
C50   C   0.554282114812004   0.342039198264729   0.391905231578946   1.0
C51   C   0.637953442979658   0.511372140993664   0.372455294736845   1.0
C52   C   0.654789976884999   0.650949692903360   0.351181531578945   1.0
C53   C   0.738593527290540   0.801496488362424   0.320984186842104   1.0
C54   C   0.387765264105042   0.067212507904749   0.440615805263157   1.0
C55   C   0.923003054699038   0.990644884604713   0.333868428947369   1.0
C56   C   0.482230937805639   0.341927431405004   0.267168447368419   1.0
C57   C   0.946473685673290   0.068140301436621   0.396605239473686   1.0
C58   C   0.989335602884417   0.145074334410737   0.417539499999997   1.0
C59   C   0.564893230436454   0.021286694530517   0.319271086842107   1.0
C60   C   0.527805165226894   0.898122701427027   0.304594742105266   1.0
C61   C   0.436780156696976   0.744958895291212   0.321926318421049   1.0
C62   C   0.404682693220849   0.715258957384165   0.356407868421051   1.0
C63   C   0.327019118244678   0.559388995458477   0.386084205263160   1.0
C64   C   0.283463285512006   0.425637969037261   0.379752610526317   1.0
C65   C   0.179357200389731   0.336168312682950   0.396702615789472   1.0
C66   C   0.075664018081625   0.660443446170262   0.379492107894734   1.0
C67   C   0.070967424748922   0.783582681712225   0.351307918421050   1.0
C68   C   0.137087187617034   0.013177161800307   0.334528973684208   1.0
C69   C   0.296348145018705   0.102033850452521   0.312457936842108   1.0
C70   C   0.328087928861237   0.203826253177667   0.287376305263159   1.0
C71   C   0.426616055452712   0.245558444260780   0.258721100000002   1.0
C72   C   0.127276541980216   0.428075392343608   0.403789521052630   1.0
C73   C   0.573038936992141   0.335363378829698   0.506299973684207   1.0
C74   C   0.018222414742809   0.260352742247704   0.478315755263161   1.0
C75   C   0.764678689934129   0.694627477198665   0.201721092105267   1.0
C76   C   0.202436044422463   0.001851740360408   0.339089447368423   1.0
C77   C   0.786143598298246   0.134272299451005   0.445084221052632   1.0
C78   C   0.154566633631404   0.583777709570860   0.755147334210527   1.0
C79   C   0.207183645425772   0.831654989089230   0.747657589473683   1.0
C80   C   0.240158573688760   0.896109712630690   0.718215215789471   1.0
C81   C   0.333504429102192   0.050282372625141   0.704377852631580   1.0
C82   C   0.387228587105284   0.104203391128408   0.722122847368418   1.0
C83   C   0.475170937971107   0.273201033278191   0.708508115789471   1.0
C84   C   0.515567441855374   0.310415863965538   0.678010742105265   1.0
C85   C   0.604399925328416   0.429965532643614   0.657541528947370   1.0
C86   C   0.669838121138518   0.439995878659950   0.665494431578949   1.0
C87   C   0.764125121087865   0.536890410463819   0.643353905263155   1.0
C88   C   0.805722334211666   0.571387556433599   0.613538900000002   1.0
C89   C   0.866898274732712   0.452989628751084   0.563006189473683   1.0
C90   C   0.914942463121875   0.337476605558059   0.556247926315791   1.0
C91   C   0.107003571188429   0.479983835794790   0.743758907894737   1.0
C92   C   0.070954752670474   0.284439020493359   0.698618642105266   1.0
C93   C   0.022978787413329   0.840489256381254   0.582632584210529   1.0
C94   C   0.133403849589222   0.233190901687834   0.607971268421053   1.0
C95   C   0.116111853251404   0.724472874166374   0.627723639473686   1.0
C96   C   0.395501963999706   0.049600287268227   0.554866163157897   1.0
C97   C   0.806003342660951   0.118415841690442   0.510760557894734   1.0
C98   C   0.365951128417713   0.582927554588970   0.632849163157893   1.0
C99   C   0.288053324378623   0.404715984474706   0.655375218421050   1.0
C100   C   0.413390416675100   0.684004168573992   0.643093373684209   1.0
C101   C   0.571531555789605   0.364951549877027   0.689641528947369   1.0
C102   C   0.424652888202786   0.181595975740002   0.696106273684208   1.0
C103   C   0.290846853414131   0.985523055037469   0.730809955263155   1.0
C104   C   0.158164528807688   0.734917445273709   0.737133642105263   1.0
C105   C   0.106339543206744   0.426543576931337   0.705573373684210   1.0
C106   C   0.086377468404102   0.211318110467118   0.635621005263161   1.0
C107   C   0.155260549152949   0.267252095402178   0.543406200000000   1.0
C108   C   0.747850599822996   0.001516450963521   0.561852426315788   1.0
C109   C   0.591378623815771   0.941666544407106   0.597901797368422   1.0
C110   C   0.705640042773204   0.488862463180119   0.633659163157894   1.0
C111   C   0.841170791722718   0.440633178997032   0.598793897368424   1.0
C112   C   0.255411063723436   0.930260487566962   0.608550218421051   1.0
C113   C   0.644298087805076   0.940559163504844   0.575096794736844   1.0
C114   C   0.453322686459678   0.703785929886408   0.612531794736839   1.0
C115   C   0.781932350679789   0.130761198625599   0.547522031578950   1.0
C116   C   0.364916101494167   0.584168876806466   0.355013194736841   1.0
C117   C   0.129703619714910   0.564275784743131   0.379921060526314   1.0
C118   C   0.108698402067518   0.921381860181640   0.361881557894733   1.0
C119   C   0.232834457251450   0.108575728572319   0.310552597368421   1.0
C120   C   0.392619419574437   0.199174504175595   0.290865747368422   1.0
C121   C   0.521230843237696   0.355368226570469   0.235771078947366   1.0
C122   C   0.636293051539582   0.673705492636110   0.223015836842109   1.0
C123   C   0.252459968293145   0.363072938504722   0.520686802631580   1.0
C124   C   0.341015667343058   0.485440518650115   0.497907942105265   1.0
C125   C   0.398384827781790   0.574451612184674   0.509734205263157   1.0
C126   C   0.488775700127967   0.707621227289799   0.491752626315787   1.0
C127   C   0.524705287843304   0.747843788598423   0.457068394736844   1.0
C128   C   0.651460094464639   0.008324075898855   0.441355255263161   1.0
C129   C   0.696591855146764   0.043036223510640   0.585571797368424   1.0
C130   C   0.740543703105196   0.164118121345240   0.418049963157898   1.0
C131   C   0.481187790702791   0.861758036903844   0.330739473684211   1.0
C132   C   0.607857482345601   0.077701439105390   0.292868463157895   1.0
C133   C   0.232804569711590   0.428388484920433   0.405447407894734   1.0
C134   C   0.777895561302628   0.417530572121976   0.274900034210525   1.0
C135   C   0.109941666667268   0.275571485926925   0.571560215789475   1.0
C136   C   0.208819024840047   0.350347507152854   0.551966294736843   1.0
C137   C   0.742396091862879   0.316968398795424   0.299723676315793   1.0
C138   C   0.102553874739002   0.182177398238373   0.674939684210528   1.0
C139   C   0.335416273582780   0.507089373589409   0.665139426315790   1.0
C140   C   0.357490301846738   0.010216352013792   0.586426534210524   1.0
C141   C   0.295028213492721   0.965372748236042   0.577026005263157   1.0
C142   C   0.206523845728327   0.816436245410010   0.605477850000000   1.0
C143   C   0.442618007804406   0.164498195761951   0.560622557894739   1.0
C144   C   0.988053679077595   0.798242613457397   0.552106057894740   1.0
C145   C   0.613167100247480   0.872604431956873   0.433805265789473   1.0
C146   C   0.010294045403540   0.754508526396840   0.614842323684208   1.0
C147   C   0.169631669731437   0.807970970898076   0.638467847368418   1.0
C148   C   0.501456213853515   0.808641963436102   0.616953905263159   1.0
C149   C   0.058908703001656   0.785405415245812   0.639685481578951   1.0
C150   C   0.549602417583898   0.804717084810775   0.590222057894735   1.0
H151   H   0.455324189301756   0.642138036175652   0.311163149999999   1.0
H152   H   0.663685150015802   0.143128741198538   0.331247331578950   1.0
H153   H   0.540745575787163   0.120630167386167   0.330852610526314   1.0
H154   H   0.552208496942846   0.794574535825916   0.302123723684211   1.0
H155   H   0.509052567072906   0.924378509166289   0.279292057894736   1.0
H156   H   0.433901512682951   0.686632272069630   0.377144763157894   1.0
H157   H   0.625243041714249   0.297947222425243   0.313478973684212   1.0
H158   H   0.405615057573371   0.786176645715848   0.302878931578945   1.0
H159   H   0.590867610329724   0.971970504194559   0.342613121052629   1.0
H160   H   0.675974200414736   0.299658189099105   0.258157931578950   1.0
H161   H   0.218885011154349   0.879280251391904   0.337413186842106   1.0
H162   H   0.748012385985838   0.498803686447879   0.263194736842102   1.0
H163   H   0.816895462476595   0.469405323372222   0.285486826315790   1.0
H164   H   0.788127881420820   0.342710190802748   0.251744723684212   1.0
H165   H   0.382732111269483   0.820204572155788   0.364897378947369   1.0
H166   H   0.006904387903461   0.366997805947776   0.463876323684211   1.0
H167   H   0.309377890325557   0.987547136652708   0.306631592105262   1.0
H168   H   0.873877383614868   0.460202074482375   0.434055228947372   1.0
H169   H   0.117244339358926   0.986272547160809   0.307936818421055   1.0
H170   H   0.900120104137059   0.370788743257869   0.365049968421054   1.0
H171   H   0.852011912383936   0.492821034006376   0.350107894736844   1.0
H172   H   0.713636954601313   0.127753031895523   0.270934255263157   1.0
H173   H   0.302607670607514   0.665755094891459   0.390663147368421   1.0
H174   H   0.208916807638929   0.968638140886490   0.445944736842108   1.0
H175   H   0.306227009529451   0.315044991221015   0.381907915789476   1.0
H176   H   0.400185889512052   0.154892697999884   0.387536802631580   1.0
H177   H   0.980785117951946   0.500380286879981   0.338992068421050   1.0
H178   H   0.393598895444413   0.297723699888081   0.419442126315786   1.0
H179   H   0.393709350321743   0.097225560753181   0.468042073684210   1.0
H180   H   0.409541072716394   0.962275425210564   0.435147336842107   1.0
H181   H   0.291617440119993   0.999078613912914   0.490178963157895   1.0
H182   H   0.323557341459427   0.846013334820725   0.470281600000000   1.0
H183   H   0.238655416512380   0.795603417142857   0.433023655263156   1.0
H184   H   0.636130946019925   0.543756071417356   0.401292097368419   1.0
H185   H   0.883913810262307   0.747161703241510   0.455978997368419   1.0
H186   H   0.349123038306580   0.539294566495769   0.411236813157892   1.0
H187   H   0.827536469898995   0.787574519812893   0.424234189473687   1.0
H188   H   0.121988044209083   0.136866699563434   0.341597405263158   1.0
H189   H   0.081565868294923   0.751075489047942   0.324271052631580   1.0
H190   H   0.026879134784551   0.829441088320038   0.354460565789473   1.0
H191   H   0.042310622185383   0.579997876261935   0.374026350000001   1.0
H192   H   0.067245751128958   0.697534969887919   0.407234192105264   1.0
H193   H   0.087974188611312   0.379298389045374   0.396742068421055   1.0
H194   H   0.130444642495824   0.468566686135759   0.431610510526319   1.0
H195   H   0.184986485947952   0.284014161056817   0.370113171052630   1.0
H196   H   0.188639936435898   0.234722717100105   0.411076294736844   1.0
H197   H   0.263710099873478   0.430804158697803   0.355292071052631   1.0
H198   H   0.818360288318907   0.525842253584884   0.405228965789476   1.0
H199   H   0.946971707724082   0.659973790531616   0.329384252631577   1.0
H200   H   0.500289620438082   0.809748908229558   0.434752615789471   1.0
H201   H   0.002390692348158   0.639901524842145   0.283802634210524   1.0
H202   H   0.823874571358751   0.208489083816353   0.441039436842104   1.0
H203   H   0.762894524308464   0.175993408897497   0.391973700000001   1.0
H204   H   0.723796836077526   0.269499688372299   0.422776273684214   1.0
H205   H   0.634513109940059   0.119925471464931   0.448468460526314   1.0
H206   H   0.673274562283055   0.969152581544968   0.465176331578945   1.0
H207   H   0.637612983065559   0.769604835323975   0.427549965789474   1.0
H208   H   0.846161397714241   0.171039648955222   0.503692126315791   1.0
H209   H   0.582594233435294   0.890630419211043   0.413999960526318   1.0
H210   H   0.482912181248736   0.821266731929420   0.503465752631577   1.0
H211   H   0.510789953312205   0.629893342099045   0.507778971052630   1.0
H212   H   0.804099950490752   0.021421071954556   0.441168434210525   1.0
H213   H   0.389493878677136   0.677608185623654   0.527260528947366   1.0
H214   H   0.351009215015367   0.381356162861543   0.484210565789475   1.0
H215   H   0.312750328106127   0.540267569973992   0.477215818421051   1.0
H216   H   0.544079682233665   0.635462216740621   0.446205242105265   1.0
H217   H   0.274636335513222   0.256125863864455   0.513857892105264   1.0
H218   H   0.817713152183728   0.002153751300611   0.506444731578945   1.0
H219   H   0.329331521333984   0.624000282061758   0.616229689473684   1.0
H220   H   0.034858831151247   0.369379776341937   0.523957905263160   1.0
H221   H   0.235036077590436   0.414030564115464   0.495421057894738   1.0
H222   H   0.837368555023374   0.437714582306611   0.540818465789471   1.0
H223   H   0.467131790139597   0.415998767891978   0.390823668421049   1.0
H224   H   0.422813495138456   0.499754079361786   0.526250036842107   1.0
H225   H   0.020887945566578   0.457887510854640   0.272121028947367   1.0
H226   H   0.004932772601244   0.208254479642577   0.536284197368424   1.0
H227   H   0.264778586875131   0.441684245951770   0.632191271052633   1.0
H228   H   0.956505564679674   0.442500708732723   0.223107889473681   1.0
H229   H   0.008096649090703   0.582525294534470   0.217868402631581   1.0
H230   H   0.858003101601909   0.512434725693822   0.226868378947366   1.0
H231   H   0.880950051269757   0.583006042992011   0.183034194736841   1.0
H232   H   0.839420737663062   0.846158368954853   0.198823728947367   1.0
H233   H   0.820029451426194   0.763476723821817   0.243415831578950   1.0
H234   H   0.214882333343191   0.036360404075609   0.366397357894733   1.0
H235   H   0.734871857928660   0.906632347214533   0.187286878947369   1.0
H236   H   0.648896898338904   0.769895328518750   0.170839510526314   1.0
H237   H   0.635620256148776   0.896546100994925   0.206557926315789   1.0
H238   H   0.064742006468030   0.242550277530697   0.471623673684213   1.0
H239   H   0.610437898190845   0.500223735000432   0.190194781578946   1.0
H240   H   0.555440264433237   0.543677996758568   0.262878921052632   1.0
H241   H   0.606337105449718   0.413314786557613   0.251821015789474   1.0
H242   H   0.478458260773159   0.455662092340027   0.279318457894739   1.0
H243   H   0.507034172384323   0.269566659029920   0.284128992105266   1.0
H244   H   0.438061756888892   0.134372973491828   0.245973686842106   1.0
H245   H   0.401280363642321   0.313680820507187   0.237281597368423   1.0
H246   H   0.319371761612779   0.168658114669867   0.260821094736841   1.0
H247   H   0.314649500508267   0.328609082173905   0.290926281578948   1.0
H248   H   0.312971889348688   0.122452900919747   0.340071026315790   1.0
H249   H   0.733637041381208   0.881114502670911   0.231507855263160   1.0
H250   H   0.558829594060313   0.645101417885897   0.199189436842104   1.0
H251   H   0.477764021636702   0.279709219197052   0.361034192105265   1.0
H252   H   0.985605485470245   0.672330229103387   0.553578321052633   1.0
H253   H   0.559327939726010   0.387159641676902   0.417999973684211   1.0
H254   H   0.065504468736506   0.518864412027369   0.750128636842106   1.0
H255   H   0.109541427415365   0.377777666451998   0.758546002631576   1.0
H256   H   0.027143251387322   0.322380732739731   0.688282842105266   1.0
H257   H   0.757478019809412   0.233626853943271   0.545878426315788   1.0
H258   H   0.814136372880100   0.143710163696909   0.567568636842104   1.0
H259   H   0.709527718065978   0.037735667608331   0.614009163157895   1.0
H260   H   0.657608845819304   0.817755631104014   0.568408639473681   1.0
H261   H   0.626912204821529   0.987771084116396   0.547968742105262   1.0
H262   H   0.577143625886421   0.696685251014834   0.594050742105260   1.0
H263   H   0.535516525222754   0.802849566257365   0.560958847368418   1.0
H264   H   0.483227301264030   0.921258575576495   0.621191271052631   1.0
H265   H   0.521499179608533   0.779601500321647   0.642711273684213   1.0
H266   H   0.399913648471887   0.796017194942785   0.650658634210529   1.0
H267   H   0.686508649112966   0.159041087980100   0.582406794736841   1.0
H268   H   0.063724522878893   0.239307484262284   0.724805747368421   1.0
H269   H   0.083166816786367   0.068162900818656   0.678140478947370   1.0
H270   H   0.150082825615968   0.167595518787437   0.678317060526318   1.0
H271   H   0.154924313265006   0.121726019360729   0.610991265789472   1.0
H272   H   0.163304244625515   0.317024276634150   0.620079160526316   1.0
H273   H   0.086637360980731   0.379231407205481   0.571046534210524   1.0
H274   H   0.080356715261175   0.194287714890940   0.562405768421051   1.0
H275   H   0.579306910633242   0.240828206855667   0.393031573684212   1.0
H276   H   0.903500989969935   0.213532424980563   0.558352557894736   1.0
H277   H   0.948295863276208   0.349687596251449   0.575390215789476   1.0
H278   H   0.195414380180090   0.522051327457064   0.754491781578949   1.0
H279   H   0.442383778741494   0.645805688880600   0.663792323684213   1.0
H280   H   0.674734840484312   0.530214591028788   0.684978110526316   1.0
H281   H   0.682867870703461   0.330051730108494   0.677476797368421   1.0
H282   H   0.594708510494222   0.362044057187774   0.634366797368422   1.0
H283   H   0.582649460873959   0.547849008485379   0.651788110526319   1.0
H284   H   0.523572805993872   0.217166799228835   0.659911271052628   1.0
H285   H   0.502414245977846   0.397916891616809   0.659577849999998   1.0
H286   H   0.462784100515201   0.372935662187167   0.723156005263156   1.0
H287   H   0.496154716130945   0.205615283328036   0.728695744736839   1.0
H288   H   0.379662121425753   0.179616690326874   0.743511528947366   1.0
H289   H   0.226055793739199   0.302218885828324   0.574677850000000   1.0
H290   H   0.407957020329540   0.002422070039877   0.731209168421053   1.0
H291   H   0.314594273069602   0.129564672610208   0.684463905263158   1.0
H292   H   0.259307182810417   0.820719012814266   0.697336800000002   1.0
H293   H   0.210500860025775   0.967732108065881   0.704537055263160   1.0
H294   H   0.183598331289950   0.924412212549505   0.763714165789473   1.0
H295   H   0.231195181684029   0.759909756339972   0.765842315789470   1.0
H296   H   0.152207451155725   0.607987261239373   0.785941526315789   1.0
H297   H   0.786420382721381   0.448404861588905   0.659886010526314   1.0
H298   H   0.756260422981462   0.632230516291102   0.662782055263158   1.0
H299   H   0.833906778238131   0.656126975382797   0.623742318421051   1.0
H300   H   0.782609374354834   0.626885175368969   0.591533373684207   1.0
H301   H   0.349037923328055   0.959200276640587   0.688527060526319   1.0
H302   H   0.195895506126284   0.463433774931893   0.561707347368419   1.0
H303   H   0.887997055410935   0.561413065891436   0.564355557894736   1.0
H304   H   0.937659407752953   0.955510024553597   0.404800013157896   1.0
H305   H   0.716417487943460   0.629389994259469   0.517742057894736   1.0
H306   H   0.730963062505140   0.640963684615770   0.441294721052628   1.0
H307   H   0.102264418237418   0.940067333410688   0.488063110526319   1.0
H308   H   0.138918136887156   0.731618349240051   0.448865789473686   1.0
H309   H   0.152889022471825   0.615523903548656   0.487155313157892   1.0
H310   H   0.031652399301571   0.096252546092678   0.415050005263154   1.0
H311   H   0.998179448987798   0.264165854013314   0.411771071052634   1.0
H312   H   0.902036164127615   0.117879215394183   0.399152655263158   1.0
H313   H   0.920818649821463   0.879560076694318   0.344323710526318   1.0
H314   H   0.943748379769808   0.994960930465652   0.306918394736840   1.0
H315   H   0.877351832478567   0.163212088524631   0.314865815789474   1.0
H316   H   0.847072646194107   0.105366213760590   0.355278918421050   1.0
H317   H   0.802226441602322   0.876182928366426   0.360218449999998   1.0
H318   H   0.830201996464666   0.750482984912964   0.330460500000001   1.0
H319   H   0.735557649012819   0.764125541904335   0.294076318421055   1.0
H320   H   0.704320106989130   0.881561547745235   0.324765757894738   1.0
H321   H   0.635402914674273   0.635350449880903   0.324286813157897   1.0
H322   H   0.759177074714650   0.472748779499184   0.447513178947368   1.0
H323   H   0.634530006044656   0.755682866774443   0.361318386842107   1.0
H324   H   0.664668845653836   0.415640867930776   0.369560542105262   1.0
H325   H   0.378239850943657   0.485261792315058   0.617954689473684   1.0
H326   H   0.745742866129739   0.460146196643656   0.509857881578945   1.0
H327   H   0.601397835001798   0.567037818371730   0.527415828947369   1.0
H328   H   0.125590159153425   0.836396319313231   0.524818421052629   1.0
H329   H   0.595402426015767   0.231233801912488   0.494789426315791   1.0
H330   H   0.011758871245853   0.632923694466911   0.610318110526315   1.0
H331   H   0.422187479134024   0.278423111959732   0.566729689473682   1.0
H332   H   0.467212685350063   0.146752033810195   0.585669165789476   1.0
H333   H   0.359154917312964   0.089353192938205   0.606671265789473   1.0
H334   H   0.946030567446265   0.845129912564431   0.557655192105265   1.0
H335   H   0.375557104658476   0.903333676107401   0.597812057894735   1.0
H336   H   0.276565067582226   0.056041066420669   0.563093505263154   1.0
H337   H   0.641547442002789   0.409870656389828   0.541381534210529   1.0
H338   H   0.181669275606040   0.842166530854186   0.581603376315790   1.0
H339   H   0.162644117055073   0.918966197586542   0.652420484210523   1.0
H340   H   0.192616954991436   0.738361564259222   0.657553373684209   1.0
H341   H   0.067016073965185   0.899397290918927   0.642785742105261   1.0
H342   H   0.225540551968912   0.702287392930813   0.603976534210524   1.0
H343   H   0.548733715948060   0.390503097803865   0.484050047368420   1.0
H344   H   0.967785255926870   0.786221441917952   0.625899949999997   1.0
H345   H   0.294491532234872   0.876048987051192   0.559079507894737   1.0
H346   H   0.298950000351503   0.288699602259825   0.649490484210524   1.0
H347   H   0.256909669000670   0.401070517407540   0.677492847368420   1.0
H348   H   0.963812465655572   0.837682426550558   0.497018415789476   1.0
H349   H   0.015531544020242   0.975369838160248   0.515013142105261   1.0
H350   H   0.461966734422972   0.187622988274804   0.507705286842103   1.0
H351   H   0.512207995510067   0.067693256362290   0.528239499999998   1.0
H352   H   0.055753274564495   0.739211294314579   0.666725739473684   1.0
O353   O   0.229542910423255   0.778785484831779   0.513094752631581   1.0
O354   O   0.447825618881254   0.627321552550931   0.586403900000001   1.0
O355   O   0.656855155218039   0.665016684404740   0.252149984210526   1.0
O356   O   0.755119165206736   0.306255945057629   0.330489510526313   1.0
O357   O   0.170759931812803   0.591515688779516   0.361178950000003   1.0
O358   O   0.482886517735025   0.922265282437927   0.359792107894734   1.0
O359   O   0.363694280640068   0.514391400542635   0.327886884210528   1.0
O360   O   0.237143811283694   0.515096096463871   0.430165742105260   1.0
O361   O   0.504228303401462   0.153002557699878   0.439402631578950   1.0
O362   O   0.606784447702900   0.033452900204082   0.262984226315787   1.0
O363   O   0.723562607014607   0.211855150507638   0.489186839473682   1.0
O364   O   0.549968536753610   0.498490582688781   0.339813131578950   1.0
O365   O   0.583492490479898   0.897351034848178   0.493386821052631   1.0
O366   O   0.428131884707540   0.573758434008866   0.451760542105262   1.0
O367   O   0.152616457816748   0.187231821039198   0.516913163157895   1.0
O368   O   0.294453524515710   0.099696665078184   0.415542100000003   1.0
O369   O   0.920094523145153   0.424843691894090   0.496502626315788   1.0
O370   O   0.939996822868075   0.081011191849143   0.471902647368424   1.0
O371   O   0.001747780239128   0.151224620368403   0.347544721052628   1.0
O372   O   0.811172613887550   0.983051939530185   0.280355252631580   1.0
O373   O   0.751487158464442   0.611889954226918   0.365652589473683   1.0
O374   O   0.115034598840637   0.949393430796867   0.392521005263156   1.0
O375   O   0.706036053740874   0.947827923183659   0.390623694736846   1.0
O376   O   0.205259137382917   0.177357579611325   0.287834168421050   1.0
O377   O   0.265072591017770   0.986865051295787   0.636860742105263   1.0
O378   O   0.512203775742009   0.287693331507192   0.208155284210527   1.0
O379   O   0.121945488848866   0.607439117197693   0.611097318421052   1.0
O380   O   0.057452325211642   0.941632841023889   0.578805481578947   1.0
O381   O   0.547434904552830   0.317393269414247   0.566057136842105   1.0
O382   O   0.315535085474423   0.499496853441407   0.558074715789473   1.0
O383   O   0.588649098144231   0.035801167215034   0.621691792105260   1.0
O384   O   0.755510956406340   0.872760983836422   0.557225400000000   1.0
O385   O   0.036889902176370   0.206006886672455   0.626559165789473   1.0
O386   O   0.136708068495871   0.475544527693266   0.682623113157895   1.0
O387   O   0.121719699322064   0.773585591788020   0.716041002631577   1.0
O388   O   0.297489398535340   0.002556436281644   0.761796526315791   1.0
O389   O   0.419015158850357   0.167696192828259   0.318202671052632   1.0
O390   O   0.417767665966366   0.172012652433445   0.664980739473684   1.0
O391   O   0.685605844427300   0.507849958531644   0.605125478947372   1.0
O392   O   0.847396210003609   0.324740081387297   0.615489692105264   1.0
O393   O   0.386010986019237   0.987748473552081   0.527386815789477   1.0
O394   O   0.640155063318645   0.477881276958790   0.459636889473685   1.0
O395   O   0.819309872390932   0.686878405171115   0.499900015789471   1.0
O396   O   0.946933372131923   0.656227638241347   0.396621102631578   1.0
O397   O   0.916185727721633   0.362905293806279   0.283697328947369   1.0
O398   O   0.932170464611922   0.787786949531160   0.239739468421050   1.0
O399   O   0.042110500430383   0.626728623489420   0.492436860526318   1.0
O400   O   0.747939938827670   0.576061904817706   0.188826310526316   1.0
O401   O   0.590024584981876   0.367859053748553   0.719527321052631   1.0
O402   O   0.344958574332580   0.543789752436012   0.695909426315787   1.0


# Number_of_total_atoms: 402
# Number_of_atom_type: 3
# Name_of_each_atom: C H O
# Number_of_each_atom: 150 202 50
# Created_by: Lihua Chen (lihua.chen@mse.gatech.edu)
# Tool: VASP
# K-points: 1 2 1
# Pseudopotential: PBE-HSE06
# Material_class: MC_Pol
# Geometry_class: GC_PD
# Bandgap_(eV): 4.93
