#======================================================================

# Note: Disordered slab of polyketone
# Common_name: Disordered slab-2

#----------------------------------------------------------------------

data_1
_audit_creation_method   'vasp2cif'
_cell_length_a    24.2596817
_cell_length_b    8.8139229
_cell_length_c    38.0
_cell_angle_alpha    90.0
_cell_angle_beta    90.0
_cell_angle_gamma    90.0

_symmetry_space_group_name_H-M    'P 1'
loop_
_atom_site_label
_atom_site_type_symbol
_atom_site_fract_x
_atom_site_fract_y
_atom_site_fract_z
_atom_site_occupancy
C1   C   0.651390904275551   0.189627254397699   0.258255307894736   1.0
C2   C   0.967928449778462   0.236950427601315   0.513586847368423   1.0
C3   C   0.701028851503850   0.831622965524240   0.207221084210523   1.0
C4   C   0.799385488227571   0.727855277699334   0.217139494736841   1.0
C5   C   0.846583316878387   0.618471543471294   0.208210494736839   1.0
C6   C   0.916996384169380   0.462105233527737   0.243028942105262   1.0
C7   C   0.949379278129605   0.446993040976110   0.276763113157898   1.0
C8   C   0.938365258930830   0.547663141006147   0.340800036842104   1.0
C9   C   0.899642582697197   0.521295880634490   0.372634184210526   1.0
C10   C   0.888694289834810   0.552201517442363   0.440178921052635   1.0
C11   C   0.826912679567435   0.592580790558081   0.435042131578946   1.0
C12   C   0.737871824591991   0.566349451502461   0.467071031578946   1.0
C13   C   0.698530871491194   0.584695550264001   0.498678910526316   1.0
C14   C   0.600355688096272   0.500692274038386   0.519897360526315   1.0
C15   C   0.471862860426562   0.225173424196846   0.528834192105265   1.0
C16   C   0.639725578097753   0.772795437091922   0.199363207894734   1.0
C17   C   0.922321932195835   0.108698613644556   0.359731573684208   1.0
C18   C   0.551591705343768   0.627763830337116   0.222642097368421   1.0
C19   C   0.807712205061620   0.937920820705159   0.299218428947370   1.0
C20   C   0.571076791992702   0.436214503305898   0.365213194736839   1.0
C21   C   0.911130540513234   0.480621438156668   0.307155307894739   1.0
C22   C   0.920726845315535   0.593613032398999   0.406568426315786   1.0
C23   C   0.305322876515731   0.451984983894064   0.530407855263157   1.0
C24   C   0.410439770938957   0.672443004918954   0.473963184210525   1.0
C25   C   0.548623875802953   0.875394553315189   0.451642086842106   1.0
C26   C   0.678658644560862   0.020905708172236   0.402673721052629   1.0
C27   C   0.801120836634887   0.133681768421191   0.458089426315787   1.0
C28   C   0.726808427169097   0.154750650246783   0.522863189473682   1.0
C29   C   0.998271255141816   0.043290746280526   0.446773731578951   1.0
C30   C   0.795482056963671   0.621138040588036   0.469102660526317   1.0
C31   C   0.637091734802112   0.547515556325095   0.491473650000003   1.0
C32   C   0.081692827816454   0.573417983949007   0.524250031578944   1.0
C33   C   0.199328254170787   0.844330076905933   0.490384252631578   1.0
C34   C   0.307037783599611   0.092769282109330   0.437039426315792   1.0
C35   C   0.456437818802875   0.213634884416791   0.419105231578946   1.0
C36   C   0.713778536508990   0.645769320264876   0.349357905263155   1.0
C37   C   0.891188184880427   0.618482787045934   0.235960510526319   1.0
C38   C   0.532283991178666   0.504855845743784   0.250610552631578   1.0
C39   C   0.619795489732248   0.103400246444181   0.287568447368422   1.0
C40   C   0.016197108637250   0.128769018390209   0.509834189473686   1.0
C41   C   0.788589724159486   0.810258914336544   0.325910568421051   1.0
C42   C   0.862486064687317   0.010898858668256   0.305965826315791   1.0
C43   C   0.137134346655507   0.662073036740544   0.523065768421056   1.0
C44   C   0.138985430299357   0.800365453616571   0.499115794736845   1.0
C45   C   0.214963368624908   0.965967356033943   0.461115786842107   1.0
C46   C   0.278434729009653   0.970199308187730   0.461792092105263   1.0
C47   C   0.031118965588078   0.662084291660868   0.530092139473687   1.0
C48   C   0.395930202991906   0.211376934100478   0.416421086842106   1.0
C49   C   0.483594230339797   0.320340866607765   0.392573710526314   1.0
C50   C   0.548260956779167   0.313442837127610   0.388513163157896   1.0
C51   C   0.631209538911634   0.465078166272591   0.371294723684208   1.0
C52   C   0.653748940160249   0.599728549928656   0.347255305263161   1.0
C53   C   0.732999765615226   0.730453405713362   0.316952655263158   1.0
C54   C   0.369281069339010   0.083057170831388   0.436013171052629   1.0
C55   C   0.866690777727726   0.040250295359400   0.346565747368423   1.0
C56   C   0.441965365934706   0.399681542483201   0.281863163157894   1.0
C57   C   0.929246973590757   0.100665777323741   0.399305242105264   1.0
C58   C   0.991313196001251   0.091271787730299   0.410252621052635   1.0
C59   C   0.532300347535063   0.987989264122106   0.310123644736841   1.0
C60   C   0.473622739246409   0.938034209489167   0.298086868421052   1.0
C61   C   0.392471773444576   0.772954276693298   0.326494718421053   1.0
C62   C   0.368077203585074   0.748799515820586   0.364692089473685   1.0
C63   C   0.293591506602496   0.597050786545907   0.397531610526315   1.0
C64   C   0.233446496538328   0.571818344360601   0.388978957894736   1.0
C65   C   0.158416736358085   0.419195793056005   0.421731547368424   1.0
C66   C   0.097088623384536   0.752929322765006   0.383313128947371   1.0
C67   C   0.096779480828886   0.847541053484825   0.348165813157898   1.0
C68   C   0.099149779858820   0.118365285450821   0.327678981578948   1.0
C69   C   0.258183230821203   0.201926238769346   0.318478936842105   1.0
C70   C   0.299003857086880   0.167037937216357   0.289197321052633   1.0
C71   C   0.377826033059620   0.349317918358466   0.275515807894735   1.0
C72   C   0.101791801332659   0.493748373950488   0.417552647368424   1.0
C73   C   0.548747471818643   0.411844185748436   0.508444736842108   1.0
C74   C   0.035686288497345   0.128508033579465   0.470555257894738   1.0
C75   C   0.741491278510878   0.712697634330340   0.200197321052634   1.0
C76   C   0.150230285173116   0.209890694641771   0.318568381578949   1.0
C77   C   0.819381624450578   0.085133760359987   0.495736876315789   1.0
C78   C   0.218916178112920   0.590765616976299   0.785548110526314   1.0
C79   C   0.279605568773803   0.804665797564439   0.766239694736839   1.0
C80   C   0.298785288679198   0.893740674768097   0.735342842105261   1.0
C81   C   0.380105448786658   0.034078083437741   0.709420481578945   1.0
C82   C   0.425171988138658   0.151301641179551   0.712042321052628   1.0
C83   C   0.519027349810614   0.227476791293469   0.687543631578947   1.0
C84   C   0.546707069944780   0.278191848036251   0.653868639473686   1.0
C85   C   0.638761043596048   0.363068957637466   0.629195742105260   1.0
C86   C   0.688085755057536   0.466609425412607   0.632892849999998   1.0
C87   C   0.785444835411838   0.544168692467231   0.618010478947369   1.0
C88   C   0.837407483380133   0.560687931590600   0.594206265789474   1.0
C89   C   0.902981196163012   0.402608593274621   0.553706768421051   1.0
C90   C   0.937763326053862   0.257055028244004   0.549228005263160   1.0
C91   C   0.172287573748342   0.487825880573567   0.778219173684214   1.0
C92   C   0.140708198162386   0.311116948844649   0.723486010526315   1.0
C93   C   0.036885743641065   0.787477004138530   0.591331531578945   1.0
C94   C   0.166211653139705   0.227453850316756   0.621590215789475   1.0
C95   C   0.136194655843319   0.696734106898077   0.638623371052631   1.0
C96   C   0.393419955711948   0.055521338858092   0.553626715789477   1.0
C97   C   0.788973084506708   0.181345130668206   0.520621050000003   1.0
C98   C   0.409219548828624   0.591298830172434   0.636648902631578   1.0
C99   C   0.325517139822985   0.475130024112190   0.669357852631578   1.0
C100   C   0.467934268074096   0.658669467144989   0.643237326315791   1.0
C101   C   0.599279820724114   0.362444854152287   0.660244692105266   1.0
C102   C   0.461268995132777   0.172415962476819   0.678713110526317   1.0
C103   C   0.349717667565272   0.995273353253410   0.742796273684213   1.0
C104   C   0.233339256879042   0.695917410396227   0.756320478947366   1.0
C105   C   0.184872153536951   0.392181919358521   0.746512592105262   1.0
C106   C   0.130164020247633   0.244518000038326   0.655677321052629   1.0
C107   C   0.181492030870295   0.200530447117934   0.556782215789475   1.0
C108   C   0.631435972220523   0.891516920348828   0.574465481578947   1.0
C109   C   0.490543798025179   0.741629257955047   0.611604165789473   1.0
C110   C   0.870623145892303   0.415485799178029   0.588654952631579   1.0
C111   C   0.512011738389788   0.348750520610977   0.538636205263160   1.0
C112   C   0.283603976551760   0.856821654294251   0.613249692105263   1.0
C113   C   0.646770122297191   0.033544870241606   0.555434452631580   1.0
C114   C   0.735703741735406   0.448468025514494   0.607817847368423   1.0
C115   C   0.226224579855064   0.321373528239057   0.558607005263156   1.0
C116   C   0.096400205448695   0.584014741041130   0.382065823684208   1.0
C117   C   0.107039355755440   0.012986271981120   0.357342068421055   1.0
C118   C   0.202325020612285   0.115596643124711   0.313847394736840   1.0
C119   C   0.354008865664547   0.229212340852222   0.298910542105261   1.0
C120   C   0.467790230734970   0.499591651749078   0.253836884210529   1.0
C121   C   0.608480188756971   0.700648379849113   0.230968376315786   1.0
C122   C   0.204975525297186   0.528284800403689   0.424342105263158   1.0
C123   C   0.342034083654113   0.493816754398885   0.501344781578950   1.0
C124   C   0.371370841192857   0.646234584148679   0.505097339473686   1.0
C125   C   0.461619333612276   0.777152475431798   0.477889513157898   1.0
C126   C   0.497444309007569   0.784742557709464   0.443594784210525   1.0
C127   C   0.640092586210642   0.993287654013855   0.432194760526315   1.0
C128   C   0.726231342103716   0.129449816267396   0.411468405263157   1.0
C129   C   0.709825413743992   0.037447899618002   0.550672400000003   1.0
C130   C   0.762208528894263   0.038196646807521   0.436873686842105   1.0
C131   C   0.325706779574112   0.620956260009947   0.364342136842104   1.0
C132   C   0.439825898457684   0.893695223950736   0.329373710526319   1.0
C133   C   0.260289363153518   0.344598203825903   0.524581610526319   1.0
C134   C   0.698452560488455   0.273653471600028   0.276057897368418   1.0
C135   C   0.165543680649364   0.291012359547643   0.686719694736844   1.0
C136   C   0.137006665672779   0.229224026908611   0.586143636842102   1.0
C137   C   0.567647295223992   0.020531334577477   0.278318405263157   1.0
C138   C   0.379293438957198   0.547606446614139   0.671438899999998   1.0
C139   C   0.358073003900955   0.023163647142866   0.587709689473684   1.0
C140   C   0.428362475176250   0.194086437946943   0.557176560526315   1.0
C141   C   0.226908908701802   0.784969766413546   0.609924426315793   1.0
C142   C   0.093646859348532   0.814161932367256   0.646531271052631   1.0
C143   C   0.311312316187561   0.908092865209881   0.579573373684212   1.0
C144   C   0.036081916111868   0.791958686182745   0.629734160526318   1.0
C145   C   0.732645338046623   0.372327059951928   0.251063197368424   1.0
C146   C   0.195935864236837   0.757989668822724   0.644712321052630   1.0
C147   C   0.569188918913142   0.879116233249555   0.578754163157896   1.0
C148   C   0.583364492370897   0.919450055547912   0.419889452631580   1.0
C149   C   0.014861790210546   0.662833481332129   0.570256005263161   1.0
C150   C   0.554201018226877   0.758556635434147   0.607017581578944   1.0
H151   H   0.554299770553051   0.900865924298024   0.326018384210528   1.0
H152   H   0.670797684043812   0.113202805529418   0.239744689473682   1.0
H153   H   0.627973449462033   0.266108840139729   0.242742136842104   1.0
H154   H   0.647194682690333   0.019895976171974   0.301334181578944   1.0
H155   H   0.538318711741383   0.083000476439388   0.329134189473685   1.0
H156   H   0.455329246962052   0.032146480428139   0.283978915789476   1.0
H157   H   0.711288726430404   0.477331268690811   0.248863121052629   1.0
H158   H   0.477332759069135   0.831532075235195   0.282521097368424   1.0
H159   H   0.609985014766288   0.196049196209785   0.306102652631580   1.0
H160   H   0.769195524935512   0.399919586317232   0.266394765789471   1.0
H161   H   0.858512500598884   0.559916674560426   0.370086871052635   1.0
H162   H   0.347129113404648   0.852884871502560   0.374426289473682   1.0
H163   H   0.036902413274447   0.242180425698983   0.460957878947369   1.0
H164   H   0.157868584071323   0.290184408125469   0.338813178947369   1.0
H165   H   0.275660624187004   0.145764776317705   0.341647399999999   1.0
H166   H   0.909547716778164   0.621648312807459   0.459365744736843   1.0
H167   H   0.902400026130600   0.399023254446668   0.381765768421054   1.0
H168   H   0.979000334534483   0.488155245832701   0.345147384210527   1.0
H169   H   0.409133067891816   0.667791228353039   0.316334171052631   1.0
H170   H   0.964416552917925   0.320125321268691   0.278036821052631   1.0
H171   H   0.944927377179894   0.669561404944893   0.333286889473683   1.0
H172   H   0.748552174944656   0.341909185522830   0.225965802631578   1.0
H173   H   0.363815251541411   0.807547397538499   0.307044781578945   1.0
H174   H   0.810572794943141   0.497231567569081   0.419963136842107   1.0
H175   H   0.083382891210810   0.048464481122245   0.305165742105260   1.0
H176   H   0.376725326120002   0.977505895813998   0.421684165789472   1.0
H177   H   0.985805869002810   0.521897054488640   0.276350021052629   1.0
H178   H   0.288360617691040   0.989736499737248   0.490594763157894   1.0
H179   H   0.299469613403872   0.858251210706641   0.455586884210526   1.0
H180   H   0.201203868227175   0.936842708256499   0.433952634210527   1.0
H181   H   0.194019054256593   0.078893599125991   0.465465747368420   1.0
H182   H   0.633435174048472   0.480848658206440   0.399047350000004   1.0
H183   H   0.818924042189721   0.685297700981707   0.415839447368420   1.0
H184   H   0.894729014519591   0.432266023112135   0.449310502631576   1.0
H185   H   0.071408109200377   0.199906774768813   0.336689497368418   1.0
H186   H   0.403213761044526   0.722829127538660   0.384065828947371   1.0
H187   H   0.127884608642660   0.804223032175607   0.329581613157892   1.0
H188   H   0.065711459849865   0.801636170427585   0.403265802631580   1.0
H189   H   0.134929152842098   0.794375022273002   0.397073644736842   1.0
H190   H   0.069780000452354   0.410323750392685   0.417468421052632   1.0
H191   H   0.092710940226389   0.558736428248082   0.441494692105266   1.0
H192   H   0.162749134503279   0.334352868006143   0.399736805263160   1.0
H193   H   0.162382130512455   0.345414900327754   0.445423731578948   1.0
H194   H   0.209645681377594   0.672454259839284   0.379121078947371   1.0
H195   H   0.225725801670350   0.476299026849894   0.369884189473687   1.0
H196   H   0.308171516529008   0.501781210271311   0.413315823684208   1.0
H197   H   0.298534011680786   0.693704910897281   0.412850028947368   1.0
H198   H   0.055216660159232   0.834754295388720   0.336384221052633   1.0
H199   H   0.886340656316193   0.366279922870668   0.241544723684214   1.0
H200   H   0.343344871668286   0.739961226572561   0.507015831578947   1.0
H201   H   0.833804699094628   0.499330666938327   0.207521036842102   1.0
H202   H   0.634346249481091   0.101846046327452   0.446547357894737   1.0
H203   H   0.651737157788020   0.911167500682360   0.452815807894737   1.0
H204   H   0.590260914264178   0.810179710103888   0.406850013157893   1.0
H205   H   0.862378825028031   0.112669603678967   0.501139489473687   1.0
H206   H   0.559650479668079   0.993559882399246   0.402839460526316   1.0
H207   H   0.476203115228834   0.836388130874163   0.421244771052635   1.0
H208   H   0.448053553810645   0.889304432195566   0.484007886842107   1.0
H209   H   0.488107772658864   0.748118717943406   0.500168449999997   1.0
H210   H   0.395369470160858   0.653858850977699   0.531100021052630   1.0
H211   H   0.374985888623591   0.397083425814856   0.497892078947366   1.0
H212   H   0.709858431489643   0.216698264968940   0.429463136842102   1.0
H213   H   0.318472278224490   0.473462435211452   0.477297331578946   1.0
H214   H   0.276835553040250   0.228599923423431   0.517423731578944   1.0
H215   H   0.811924783003235   0.966182890027319   0.501331528947368   1.0
H216   H   0.380925950071308   0.666180345189993   0.618636794736844   1.0
H217   H   0.793742306190275   0.302369561231359   0.514302605263161   1.0
H218   H   0.630409796349468   0.022891418757474   0.528226349999997   1.0
H219   H   0.047347525586041   0.170237658874918   0.528071052631581   1.0
H220   H   0.236352688831857   0.384092388645698   0.500763139473683   1.0
H221   H   0.730633555674395   0.930251103058772   0.543365781578949   1.0
H222   H   0.870037878526659   0.410720633828099   0.532036831578949   1.0
H223   H   0.380344458517769   0.069102283615393   0.462473718421052   1.0
H224   H   0.514806284535879   0.675619796946485   0.432986813157896   1.0
H225   H   0.949140268398494   0.446550286932961   0.219881560526318   1.0
H226   H   0.750460806746695   0.178633613870161   0.390992115789473   1.0
H227   H   0.738111151722158   0.968599668599325   0.454678986842104   1.0
H228   H   0.866101112118052   0.642547100111351   0.182439505263154   1.0
H229   H   0.817196867838540   0.843048116520286   0.216331581578949   1.0
H230   H   0.788672433406248   0.708250148183168   0.247050034210524   1.0
H231   H   0.144706605940343   0.273176952795900   0.294352581578949   1.0
H232   H   0.710691200041587   0.932599501182388   0.192484202631576   1.0
H233   H   0.634296875379036   0.699388929304114   0.174205278947369   1.0
H234   H   0.610203269896985   0.862517347411789   0.192218378947366   1.0
H235   H   0.548648406215484   0.570274968028144   0.197536871052634   1.0
H236   H   0.524385923826856   0.728207152799122   0.221665834210526   1.0
H237   H   0.553339321018377   0.528500334397073   0.277871081578951   1.0
H238   H   0.786466926315853   0.951592213269755   0.423244776315791   1.0
H239   H   0.543817547284640   0.390604789610762   0.243015792105261   1.0
H240   H   0.468111636435857   0.291443427534404   0.282223652631579   1.0
H241   H   0.376016466860733   0.299419569463218   0.249652663157896   1.0
H242   H   0.345686237919601   0.438098068681768   0.271871065789476   1.0
H243   H   0.305949653082216   0.044130383759089   0.289594749999999   1.0
H244   H   0.282746372554428   0.201721959696286   0.263271031578945   1.0
H245   H   0.256620852531633   0.326660651864792   0.324178997368421   1.0
H246   H   0.699878770462185   0.868984297559493   0.234455310526314   1.0
H247   H   0.315776480282508   0.399885832901944   0.645416531578945   1.0
H248   H   0.076391810202523   0.075410394161722   0.469168413157895   1.0
H249   H   0.004136154844936   0.014382063632532   0.518100036842107   1.0
H250   H   0.451924280605873   0.461163881975871   0.306505305263158   1.0
H251   H   0.386362830968224   0.321090044933342   0.427771015789475   1.0
H252   H   0.398811547473848   0.291829498531236   0.560309978947366   1.0
H253   H   0.471912234528617   0.438982714495950   0.399921015789474   1.0
H254   H   0.133474014211821   0.546675918846532   0.774539173684211   1.0
H255   H   0.166462930138117   0.412150178894805   0.799533644736840   1.0
H256   H   0.100262758187796   0.370137070293637   0.722624694736844   1.0
H257   H   0.802052666667919   0.172404707556495   0.547110768421049   1.0
H258   H   0.627544804101859   0.129540706556441   0.566537136842108   1.0
H259   H   0.554934721175670   0.853236746602356   0.552000294736843   1.0
H260   H   0.547490146995621   0.990950510810571   0.585786534210527   1.0
H261   H   0.565499653690843   0.778309803458797   0.635153897368419   1.0
H262   H   0.568500505099372   0.638179249332893   0.601120215789472   1.0
H263   H   0.467213145669589   0.735105170933593   0.666201794736843   1.0
H264   H   0.725901444947645   0.087890716629708   0.574820478947366   1.0
H265   H   0.128878075922984   0.200383293572948   0.733852589473685   1.0
H266   H   0.203668830494180   0.221883243385307   0.687152589473683   1.0
H267   H   0.183408836728475   0.394677902163181   0.677247852631581   1.0
H268   H   0.190659372913373   0.121462430763948   0.625844686842107   1.0
H269   H   0.196278028660203   0.332798690580788   0.624063373684208   1.0
H270   H   0.120419593139182   0.343418377303934   0.583855218421050   1.0
H271   H   0.101672294406072   0.143847457526547   0.585951007894735   1.0
H272   H   0.251888741804883   0.301552422247760   0.582632057894735   1.0
H273   H   0.203701848239831   0.421215688192596   0.566720400000001   1.0
H274   H   0.412538034247994   0.487190533513740   0.620622586842103   1.0
H275   H   0.386597751610239   0.211025512828115   0.388271031578945   1.0
H276   H   0.908245106942189   0.165688027518371   0.555195768421051   1.0
H277   H   0.966947558920360   0.241442933429788   0.571755215789473   1.0
H278   H   0.257461795139712   0.526242395426443   0.793795210526312   1.0
H279   H   0.497852199767323   0.568493978997708   0.647779955263161   1.0
H280   H   0.674326246415674   0.581881888256589   0.639348376315787   1.0
H281   H   0.708749546371834   0.441966879469753   0.659693894736840   1.0
H282   H   0.651811375579591   0.248000773866536   0.624709952631576   1.0
H283   H   0.619787311554049   0.389163989623732   0.603349686842108   1.0
H284   H   0.556121917296217   0.181878343864341   0.636678107894738   1.0
H285   H   0.518504041213369   0.354480409625545   0.638573636842104   1.0
H286   H   0.510193676613653   0.315235512214429   0.706745476315788   1.0
H287   H   0.533067068229506   0.124049292511963   0.701220213157896   1.0
H288   H   0.406701123370468   0.259164940051832   0.721702589473686   1.0
H289   H   0.151570005965908   0.687362615799600   0.550637452631577   1.0
H290   H   0.455580523960464   0.117480197154890   0.731923105263157   1.0
H291   H   0.348963210016066   0.070009870406288   0.691508371052635   1.0
H292   H   0.302610726339417   0.823397536186754   0.712970484210530   1.0
H293   H   0.265054495747982   0.973988506298369   0.728850742105266   1.0
H294   H   0.259872976816510   0.861518870331849   0.789447836842108   1.0
H295   H   0.310430173533561   0.724894042356553   0.776652842105264   1.0
H296   H   0.205738165146663   0.658658212224658   0.808589434210525   1.0
H297   H   0.796475524243995   0.508021371505301   0.644916794736844   1.0
H298   H   0.770440269214248   0.657228667157959   0.621107323684214   1.0
H299   H   0.863829874569213   0.646541008431100   0.604156271052631   1.0
H300   H   0.823305814436964   0.597130421914628   0.567679426315792   1.0
H301   H   0.397348234787437   0.922740236359452   0.701319168421051   1.0
H302   H   0.020368799809930   0.551872583319287   0.581568376315786   1.0
H303   H   0.927622953931831   0.508702169382488   0.552005084210528   1.0
H304   H   0.900025947166490   0.933416628820297   0.298457900000002   1.0
H305   H   0.170531470740606   0.580202613299463   0.515684228947372   1.0
H306   H   0.111264514241341   0.898857715217815   0.510292152631578   1.0
H307   H   0.010471530630184   0.997113634837902   0.392426342105260   1.0
H308   H   0.017912015721130   0.188867252287857   0.405984176315790   1.0
H309   H   0.907523984537690   0.185384047323581   0.414431623684209   1.0
H310   H   0.909737356529291   0.989101141331744   0.409573705263156   1.0
H311   H   0.830502883308647   0.102821571084995   0.358386792105264   1.0
H312   H   0.868962015276566   0.936037255329296   0.361902639473684   1.0
H313   H   0.863792767734459   0.116028142247536   0.288842152631581   1.0
H314   H   0.783313546113014   0.873431795052348   0.350710518421053   1.0
H315   H   0.822712368893114   0.718869415115940   0.329173642105261   1.0
H316   H   0.734731024933438   0.666327929871045   0.292426360526313   1.0
H317   H   0.706585548482281   0.834799746206087   0.314997321052630   1.0
H318   H   0.646996868883072   0.570252458187490   0.320099981578949   1.0
H319   H   0.739648690444277   0.442953681838993   0.458092136842104   1.0
H320   H   0.631753606231364   0.704937037740592   0.351578963157891   1.0
H321   H   0.649742354204093   0.358178706101455   0.362839447368422   1.0
H322   H   0.568813732622054   0.332072430540549   0.416142113157896   1.0
H323   H   0.565169752412700   0.212046488403026   0.374907844736839   1.0
H324   H   0.464434638480853   0.291296273989417   0.366589494736843   1.0
H325   H   0.019948328505890   0.683062702987790   0.639153902631577   1.0
H326   H   0.721923791770109   0.621183048923655   0.443842136842107   1.0
H327   H   0.703761756280585   0.710473891256754   0.509242107894735   1.0
H328   H   0.120163909652618   0.759827352245161   0.471760500000002   1.0
H329   H   0.583933403380144   0.603654077800023   0.533855236842108   1.0
H330   H   0.448964629243257   0.201097856211106   0.582137584210528   1.0
H331   H   0.339478547239139   0.139695140741473   0.597047581578948   1.0
H332   H   0.969268170571254   0.682245575349882   0.573319692105265   1.0
H333   H   0.390299284099839   0.977641805784344   0.605709949999998   1.0
H334   H   0.278863374369827   0.968690127752311   0.562298478947369   1.0
H335   H   0.234625514480676   0.675166219119070   0.596867318421054   1.0
H336   H   0.199711614518009   0.844795340789737   0.590711531578947   1.0
H337   H   0.714710049142980   0.525641232917977   0.521957899999997   1.0
H338   H   0.214695426115178   0.681485573240039   0.664767844736843   1.0
H339   H   0.112468062596221   0.929955933696675   0.641027847368420   1.0
H340   H   0.085101574106801   0.811688470748933   0.674442318421050   1.0
H341   H   0.011003330682612   0.887205332826319   0.637426528947366   1.0
H342   H   0.189249836695097   0.863050560607924   0.659952052631581   1.0
H343   H   0.624280095150631   0.432810922364659   0.539628984210523   1.0
H344   H   0.318097409332459   0.399862891925231   0.692547323684209   1.0
H345   H   0.292626972100791   0.557998935978894   0.670836273684209   1.0
H346   H   0.999680795482163   0.623508937206608   0.511573692105266   1.0
H347   H   0.034643438870837   0.774713198364829   0.521594700000001   1.0
H348   H   0.448667749832843   0.246888896656898   0.504134228947372   1.0
H349   H   0.501945584059335   0.128269989745426   0.524807878947371   1.0
H350   H   0.525602048603957   0.468663073964485   0.487578944736839   1.0
H351   H   0.560198631954847   0.311355423814746   0.492552607894737   1.0
H352   H   0.329469945188933   0.812505598386842   0.567020084210526   1.0
O353   O   0.482114243897932   0.129018748280629   0.437318400000002   1.0
O354   O   0.236196070948452   0.782791031675579   0.505476299999998   1.0
O355   O   0.462765329686910   0.794670191635099   0.587334165789471   1.0
O356   O   0.630727112961253   0.681304223798008   0.258528960526313   1.0
O357   O   0.218792586219301   0.599252031124529   0.450176339473686   1.0
O358   O   0.559798601974236   0.977789390465396   0.249050039473687   1.0
O359   O   0.448103241189685   0.941925983945239   0.358247355263160   1.0
O360   O   0.314457514090137   0.553971262898159   0.337992115789476   1.0
O361   O   0.692244869808000   0.225945112363078   0.505984255263158   1.0
O362   O   0.709553378023095   0.270715165888276   0.306692123684208   1.0
O363   O   0.818631565145388   0.249612099511332   0.446507905263161   1.0
O364   O   0.545631202572622   0.492364268355466   0.342142105263157   1.0
O365   O   0.561657859674227   0.892208984492022   0.482555289473687   1.0
O366   O   0.400456325855259   0.613672613360393   0.446023642105260   1.0
O367   O   0.182320706211080   0.093585978611181   0.537436836842105   1.0
O368   O   0.279613746952009   0.189411720404316   0.420228957894736   1.0
O369   O   0.949672068450923   0.290252357437801   0.486321097368418   1.0
O370   O   0.970818285715595   0.940655267134233   0.458615755263161   1.0
O371   O   0.958633422630605   0.151324570810573   0.340344784210529   1.0
O372   O   0.775988792136545   0.980705186336493   0.276163202631580   1.0
O373   O   0.746309870174429   0.617473055045672   0.373289510526312   1.0
O374   O   0.098906367761621   0.519855080647460   0.354665757894736   1.0
O375   O   0.672046834810700   0.955619886350490   0.374352605263155   1.0
O376   O   0.117410567674511   0.052231169392236   0.386692147368422   1.0
O377   O   0.304222482853106   0.883075525881900   0.640937323684213   1.0
O378   O   0.374404714469108   0.173993092224578   0.324526334210525   1.0
O379   O   0.124739406618019   0.575494142341547   0.625074689473685   1.0
O380   O   0.059783978946435   0.890007739913408   0.577215742105260   1.0
O381   O   0.520651369469533   0.372349569792583   0.569194426315789   1.0
O382   O   0.310232359726299   0.505877252454752   0.559585794736840   1.0
O383   O   0.662524747799971   0.797733583532938   0.585898373684209   1.0
O384   O   0.080555014042083   0.224742356210079   0.657907589473687   1.0
O385   O   0.233215664985416   0.372247424583215   0.739580218421054   1.0
O386   O   0.209637503199396   0.698549280479867   0.728601531578946   1.0
O387   O   0.369565359961008   0.017638048547035   0.772411800000000   1.0
O388   O   0.442661957926681   0.139275327675037   0.650976797368422   1.0
O389   O   0.207106501319018   0.983541777974935   0.303031621052632   1.0
O390   O   0.608905062427098   0.420954703381852   0.688598634210528   1.0
O391   O   0.878059228617168   0.326569772921431   0.611877844736838   1.0
O392   O   0.395159393208360   0.978129999299178   0.527686871052630   1.0
O393   O   0.622120186350180   0.568187554715280   0.461584192105264   1.0
O394   O   0.817547523717096   0.653677081745293   0.497418452631578   1.0
O395   O   0.963452018416220   0.656037154579600   0.403936889473684   1.0
O396   O   0.860911419130453   0.460483084098683   0.303442102631578   1.0
O397   O   0.911369867643401   0.723907251333003   0.251499978947365   1.0
O398   O   0.080946552567504   0.433253256617434   0.524763210526316   1.0
O399   O   0.731342724088584   0.604743445169007   0.182357889473686   1.0
O400   O   0.441128512415723   0.575528338238584   0.235413199999996   1.0
O401   O   0.735419442869279   0.353958440004050   0.584565478947368   1.0
O402   O   0.399466943541967   0.588144559331241   0.698512321052633   1.0


# Number_of_total_atoms: 402
# Number_of_atom_type: 3
# Name_of_each_atom: C H O
# Number_of_each_atom: 150 202 50
# Created_by: Lihua Chen (lihua.chen@mse.gatech.edu)
# Tool: VASP
# K-points: 1 2 1
# Pseudopotential: PBE-HSE06
# Material_class: MC_Pol
# Geometry_class: GC_PD
# Bandgap_(eV): 4.71
