#======================================================================

# Note: Disordered slab of polyketone
# Common_name: Disordered slab-3

#----------------------------------------------------------------------

data_1
_audit_creation_method   'vasp2cif'
_cell_length_a    24.3357391
_cell_length_b    8.9822044
_cell_length_c    38.0
_cell_angle_alpha    90.0
_cell_angle_beta    90.0
_cell_angle_gamma    90.0

_symmetry_space_group_name_H-M    'P 1'
loop_
_atom_site_label
_atom_site_type_symbol
_atom_site_fract_x
_atom_site_fract_y
_atom_site_fract_z
_atom_site_occupancy
C1   C   0.696640851150477   0.072265255954321   0.263494692105262   1.0
C2   C   0.916514982690622   0.307575164956162   0.511052584210525   1.0
C3   C   0.727948788701468   0.638629577389707   0.185468373684209   1.0
C4   C   0.823433868914215   0.567511434052868   0.213926315789472   1.0
C5   C   0.874272591950991   0.469706723663514   0.213513123684208   1.0
C6   C   0.950078910896934   0.385718610456024   0.254600023684212   1.0
C7   C   0.979599242991554   0.415933966054034   0.289405221052633   1.0
C8   C   0.959456181053483   0.436541012137290   0.356565776315790   1.0
C9   C   0.916227500154292   0.472545804012206   0.386199952631579   1.0
C10   C   0.903928666789497   0.619692010126158   0.445489484210526   1.0
C11   C   0.841263567787017   0.608937456377632   0.435031589473681   1.0
C12   C   0.739483297632823   0.629389072909539   0.455855218421050   1.0
C13   C   0.705524974172654   0.615439535087845   0.490794734210525   1.0
C14   C   0.607672930714479   0.560976223164104   0.517363197368418   1.0
C15   C   0.484426289727935   0.298713053111996   0.535613110526313   1.0
C16   C   0.674808935636563   0.553583572424607   0.179692118421052   1.0
C17   C   0.963417326412738   0.988031690750660   0.352226357894736   1.0
C18   C   0.592596437722328   0.442219195100925   0.212228976315792   1.0
C19   C   0.824777555245895   0.855102139514884   0.310121034210525   1.0
C20   C   0.566461969507223   0.386208289804671   0.357349999999997   1.0
C21   C   0.913720705528107   0.515820103136377   0.242786810526319   1.0
C22   C   0.938145942729967   0.402941275751864   0.320126281578951   1.0
C23   C   0.940997588193241   0.542795886497530   0.418742131578945   1.0
C24   C   0.297857125695437   0.513304217392339   0.528494784210530   1.0
C25   C   0.408985827761441   0.741878452465407   0.481718465789477   1.0
C26   C   0.553135778810187   0.958673786136508   0.462473718421052   1.0
C27   C   0.694528764076040   0.064282683213044   0.412792105263158   1.0
C28   C   0.757017044943581   0.193048512679134   0.484042118421051   1.0
C29   C   0.964629342200666   0.084445083436314   0.451918452631581   1.0
C30   C   0.800631968478001   0.655318398231955   0.464092155263160   1.0
C31   C   0.644618642381815   0.584934540122468   0.485831613157892   1.0
C32   C   0.039911481463903   0.767751733639017   0.513368405263158   1.0
C33   C   0.189333657838240   0.886297265735791   0.492384257894734   1.0
C34   C   0.306535592337937   0.023168388374685   0.428955278947370   1.0
C35   C   0.435613443110917   0.266694020011393   0.409752594736844   1.0
C36   C   0.716706159132023   0.567923381926157   0.347781534210526   1.0
C37   C   0.776704267017720   0.532163641254925   0.188360515789476   1.0
C38   C   0.568475616999031   0.374485009492773   0.246389489473685   1.0
C39   C   0.653445088914516   0.034323845936974   0.291044736842103   1.0
C40   C   0.970875316459981   0.228607801443488   0.511505228947371   1.0
C41   C   0.797693791843784   0.748380108116891   0.334102631578951   1.0
C42   C   0.863169781434749   0.963861432500913   0.327571065789471   1.0
C43   C   0.092940353720344   0.850760065090483   0.518755260526319   1.0
C44   C   0.134258219426755   0.799803876651929   0.491823699999998   1.0
C45   C   0.218204714398830   0.888746486330234   0.456931565789475   1.0
C46   C   0.273559490946383   0.974003998394871   0.460360476315792   1.0
C47   C   0.996697531984964   0.790251644685348   0.541436847368423   1.0
C48   C   0.385407373963837   0.171795500445306   0.403515765789472   1.0
C49   C   0.471733069327655   0.290296444378399   0.379428963157892   1.0
C50   C   0.528053442190298   0.362182862371739   0.387628957894734   1.0
C51   C   0.623177041703244   0.436808585651867   0.366550047368421   1.0
C52   C   0.661642945539306   0.512969978728165   0.337094760526313   1.0
C53   C   0.755850176746840   0.630635971722043   0.318626302631578   1.0
C54   C   0.355147171182487   0.125292238951943   0.436302586842103   1.0
C55   C   0.921326983654261   0.892297774920372   0.331665742105265   1.0
C56   C   0.468967634519060   0.237146718683000   0.262473657894738   1.0
C57   C   0.962303754316629   0.971175962105697   0.392668373684209   1.0
C58   C   0.976747593419098   0.107100858225849   0.413473731578947   1.0
C59   C   0.562147504285171   0.956123922096452   0.313371057894734   1.0
C60   C   0.513092002206747   0.844369673885396   0.308494768421056   1.0
C61   C   0.427407113351244   0.729910132082942   0.335797360526314   1.0
C62   C   0.392002595885820   0.697045103983605   0.368392142105264   1.0
C63   C   0.298391340002489   0.587238941033227   0.384097349999998   1.0
C64   C   0.261971690023586   0.446360383426587   0.382678986842109   1.0
C65   C   0.177873138851986   0.323851592600143   0.413563176315790   1.0
C66   C   0.107113007305372   0.676560366406271   0.396486884210525   1.0
C67   C   0.099280691252972   0.762685961588673   0.360757928947365   1.0
C68   C   0.132339247506152   0.019616665592693   0.333052586842108   1.0
C69   C   0.287559402705796   0.085580717802415   0.308355231578950   1.0
C70   C   0.318189230587208   0.191066883314299   0.281678952631580   1.0
C71   C   0.409861141221718   0.259735817189821   0.256105223684209   1.0
C72   C   0.123200244203801   0.408096224129572   0.424123663157893   1.0
C73   C   0.564021016316701   0.441628872306666   0.508194773684210   1.0
C74   C   0.997005708365769   0.189653076699081   0.475392089473686   1.0
C75   C   0.786175900447581   0.100109100166989   0.511805284210524   1.0
C76   C   0.194687709320483   0.013526957814499   0.335818442105264   1.0
C77   C   0.735678276564038   0.189062753904821   0.415094778947371   1.0
C78   C   0.037322548383173   0.804535410038099   0.605160213157895   1.0
C79   C   0.195850813505807   0.603293262843138   0.759184689473685   1.0
C80   C   0.269162570862704   0.793101769093568   0.743180478947366   1.0
C81   C   0.286486897782368   0.920698408956270   0.717196792105263   1.0
C82   C   0.369665000230050   0.107902265060901   0.707267586842107   1.0
C83   C   0.430074108577209   0.138964027583249   0.720148642105265   1.0
C84   C   0.503698426812932   0.307641841238883   0.694561273684208   1.0
C85   C   0.537401865883744   0.333871426929448   0.660903368421053   1.0
C86   C   0.625708290076140   0.461546210193120   0.637032586842103   1.0
C87   C   0.677118218283333   0.552960117451789   0.647132323684211   1.0
C88   C   0.755048853231663   0.701754549250737   0.610617055263155   1.0
C89   C   0.789685286361404   0.679655118959438   0.578199163157898   1.0
C90   C   0.847259054482549   0.478869518934573   0.546416847368420   1.0
C91   C   0.893589876627168   0.353554757671738   0.546618636842105   1.0
C92   C   0.141897099809064   0.516632977089678   0.749922842105263   1.0
C93   C   0.151861880373296   0.746409522811568   0.632518639473687   1.0
C94   C   0.110856267357008   0.292289117802753   0.711462060526316   1.0
C95   C   0.273579868383777   0.994645022774144   0.610526797368422   1.0
C96   C   0.528809614005105   0.412448919554755   0.541230589473685   1.0
C97   C   0.777945125159562   0.167252962980889   0.446439442105266   1.0
C98   C   0.374509911638555   0.605742472304463   0.632692321052630   1.0
C99   C   0.294540863153813   0.454209603602429   0.655516263157892   1.0
C100   C   0.433858748099418   0.648360195410383   0.638966268421051   1.0
C101   C   0.584053405635004   0.447273477766771   0.666242589473683   1.0
C102   C   0.466062376548081   0.187671447334239   0.688671528947367   1.0
C103   C   0.335349280597768   0.013003734361689   0.733471797368423   1.0
C104   C   0.209254754050186   0.741510669697071   0.740489949999997   1.0
C105   C   0.148015792131829   0.437209066406908   0.715097315789471   1.0
C106   C   0.114123310107317   0.263510079997737   0.646734426315788   1.0
C107   C   0.160478898296539   0.309779323213796   0.550134978947369   1.0
C108   C   0.699985643748128   0.070361769990448   0.549601715789471   1.0
C109   C   0.595674125221045   0.955389191544114   0.591245484210525   1.0
C110   C   0.716282925633436   0.568067778551111   0.613958373684213   1.0
C111   C   0.825311765443772   0.538175628690880   0.581102584210527   1.0
C112   C   0.402419452302560   0.166707651409048   0.560211189473684   1.0
C113   C   0.155629906469535   0.248313643363538   0.615047318421055   1.0
C114   C   0.458957706363641   0.757576035566501   0.614566528947371   1.0
C115   C   0.659547476000022   0.164380750453638   0.572180744736841   1.0
C116   C   0.477395609488596   0.832023372792541   0.340715810526319   1.0
C117   C   0.343033308571258   0.606321339113592   0.356452642105261   1.0
C118   C   0.107154078587243   0.508015905316071   0.392931589473683   1.0
C119   C   0.110153699831535   0.928380287137529   0.365836794736843   1.0
C120   C   0.227138065430687   0.133987454126519   0.316421007894739   1.0
C121   C   0.376819198394514   0.162755436738891   0.281284231578951   1.0
C122   C   0.504536741191480   0.357674303203346   0.244063126315787   1.0
C123   C   0.226431109298012   0.433746954144127   0.415249976315792   1.0
C124   C   0.244634821878080   0.431943276641533   0.520089502631578   1.0
C125   C   0.322935398333556   0.619402793817521   0.501373692105261   1.0
C126   C   0.381914605585166   0.659894067874916   0.511705300000003   1.0
C127   C   0.467101958699089   0.812851787251688   0.489373660526319   1.0
C128   C   0.497074366646217   0.873939497524681   0.456847342105263   1.0
C129   C   0.601435421371690   0.111865935716182   0.576818373684212   1.0
C130   C   0.646570532965647   0.067210962155350   0.437765823684210   1.0
C131   C   0.601369584045223   0.948575808406233   0.282342107894735   1.0
C132   C   0.741718590334493   0.162610617055208   0.280244726315786   1.0
C133   C   0.653239736614367   0.480672773378437   0.213265771052633   1.0
C134   C   0.594273066479417   0.970352044092870   0.431347394736839   1.0
C135   C   0.217313103919658   0.382189398851800   0.554682165789472   1.0
C136   C   0.761648151462964   0.110307309417273   0.550149610526319   1.0
C137   C   0.788735991174399   0.195319781411342   0.253605292105263   1.0
C138   C   0.121059622964154   0.305860663780933   0.583058899999997   1.0
C139   C   0.122814005677768   0.187504116472788   0.681210218421050   1.0
C140   C   0.348132792071233   0.522188406222419   0.663373371052629   1.0
C141   C   0.450891207984718   0.268731704658158   0.567403636842108   1.0
C142   C   0.312436399353082   0.023390928400602   0.579878899999997   1.0
C143   C   0.358750920369623   0.141858328229539   0.589484689473686   1.0
C144   C   0.103007962474415   0.785597831641418   0.653920213157896   1.0
C145   C   0.519399425185327   0.799481116239129   0.618142063157897   1.0
C146   C   0.011853965018879   0.709581247115686   0.576229689473685   1.0
C147   C   0.044715013401834   0.731780485868256   0.641322057894740   1.0
C148   C   0.537866166555013   0.893878912397049   0.587125742105265   1.0
C149   C   0.237879399356316   0.855380322897126   0.607596531578949   1.0
C150   C   0.203793802177969   0.831433038865157   0.641612581578947   1.0
H151   H   0.484574265508954   0.873226843958257   0.286742063157895   1.0
H152   H   0.644265322519011   0.130859146336057   0.307263123684208   1.0
H153   H   0.674570356484466   0.961201138998796   0.312315789473686   1.0
H154   H   0.585384863038740   0.927690155882004   0.337371023684213   1.0
H155   H   0.533378959507338   0.727638863350741   0.303818452631582   1.0
H156   H   0.402497514447795   0.788214383097319   0.315515821052628   1.0
H157   H   0.679098947111903   0.142170044582819   0.240773652631582   1.0
H158   H   0.443860523636204   0.634766561313164   0.322097376315789   1.0
H159   H   0.552823530229247   0.069136948163859   0.312568463157895   1.0
H160   H   0.709847908420421   0.963015448635304   0.251131560526318   1.0
H161   H   0.285361104976673   0.971799405945383   0.299589457894740   1.0
H162   H   0.822599626735808   0.212954806506076   0.272413152631579   1.0
H163   H   0.793864317028280   0.101545429093108   0.233094768421054   1.0
H164   H   0.377061537448846   0.802843420040631   0.379410492105265   1.0
H165   H   0.004348953593116   0.293580615912056   0.460731607894736   1.0
H166   H   0.213828488159621   0.910188906411435   0.325889486842108   1.0
H167   H   0.913934518635600   0.736133604352176   0.442976299999998   1.0
H168   H   0.887257687603991   0.552815720826835   0.374289463157894   1.0
H169   H   0.417717902802465   0.642058568607055   0.388905273684209   1.0
H170   H   0.986165618450435   0.342288024529928   0.361813194736840   1.0
H171   H   0.895734882364842   0.371601752906003   0.397276326315790   1.0
H172   H   0.783147436849369   0.298546145309274   0.238231557894736   1.0
H173   H   0.118002317012021   0.984558089103380   0.305176284210525   1.0
H174   H   0.618763824600670   0.527153512560901   0.385918468421053   1.0
H175   H   0.322623141534258   0.574447125696672   0.409755305263161   1.0
H176   H   0.356873019730884   0.233350367756046   0.387584184210524   1.0
H177   H   0.988409380177814   0.533933774653356   0.350102676315792   1.0
H178   H   0.339935243635153   0.225445938415739   0.449502644736839   1.0
H179   H   0.379794053594203   0.080125509056550   0.458081597368420   1.0
H180   H   0.265032759987143   0.083743485062534   0.469639426315787   1.0
H181   H   0.300507503386242   0.921522315835965   0.481452642105261   1.0
H182   H   0.223912402150958   0.770891074355866   0.448663110526319   1.0
H183   H   0.189629292993203   0.948742716208955   0.438760557894739   1.0
H184   H   0.831380925677330   0.686891917088857   0.413557855263157   1.0
H185   H   0.831450839313113   0.485905442098378   0.428271042105266   1.0
H186   H   0.275490683576571   0.693103933372967   0.385713176315789   1.0
H187   H   0.909291183188266   0.576195170976071   0.471889494736843   1.0
H188   H   0.135194973387925   0.716561538056290   0.343863136842103   1.0
H189   H   0.062848816455300   0.740241682765536   0.345631550000000   1.0
H190   H   0.072008201304229   0.712141732156532   0.411889428947369   1.0
H191   H   0.145467930332963   0.719612125504511   0.411371031578945   1.0
H192   H   0.089887119968346   0.326033685004987   0.426884200000003   1.0
H193   H   0.129721476180684   0.467780726521880   0.448457918421056   1.0
H194   H   0.170801075032891   0.281590196277428   0.385357907894736   1.0
H195   H   0.183971141439464   0.233205971131099   0.431163186842106   1.0
H196   H   0.233975626407009   0.444668415695375   0.359752655263158   1.0
H197   H   0.286240486527902   0.340440181922382   0.378676365789474   1.0
H198   H   0.115298330922691   0.130224224244998   0.338944789473686   1.0
H199   H   0.016977906374741   0.347131256554349   0.290844765789473   1.0
H200   H   0.461608084054454   0.901582889830472   0.507497386842104   1.0
H201   H   0.924684005179856   0.283293653393144   0.255084189473685   1.0
H202   H   0.754535332769080   0.194596094918524   0.388968418421051   1.0
H203   H   0.712872295709317   0.295373249355137   0.419005242105264   1.0
H204   H   0.636691963056094   0.181392331708686   0.437689431578946   1.0
H205   H   0.664959212190105   0.025795549698245   0.464589471052633   1.0
H206   H   0.602877547285999   0.855770193784501   0.426339499999997   1.0
H207   H   0.827218508436424   0.143383822349890   0.511344710526316   1.0
H208   H   0.566408673406592   0.001113134321457   0.409910502631576   1.0
H209   H   0.467940273077630   0.955723430208288   0.443336889473684   1.0
H210   H   0.495373284142417   0.731902794374172   0.502586865789475   1.0
H211   H   0.380250205756028   0.723742280903785   0.536660547368420   1.0
H212   H   0.806775114547477   0.257665423423227   0.443526321052630   1.0
H213   H   0.407617379494340   0.561933482609234   0.518352610526314   1.0
H214   H   0.301810122545241   0.730466899639914   0.503584210526313   1.0
H215   H   0.506332191077774   0.794103627835504   0.436121086842107   1.0
H216   H   0.258704647273277   0.343590566698751   0.501792105263156   1.0
H217   H   0.795750370285653   0.989423398113722   0.502610557894734   1.0
H218   H   0.345264841370693   0.693015168971215   0.623717323684211   1.0
H219   H   0.998519625812392   0.304791705697546   0.527965747368420   1.0
H220   H   0.216614300405610   0.510732265233244   0.505984255263158   1.0
H221   H   0.862060285647949   0.583643042013158   0.532928968421054   1.0
H222   H   0.811562345357324   0.449689566182663   0.532723678947370   1.0
H223   H   0.397188294149650   0.064984281586824   0.390173660526315   1.0
H224   H   0.317301696417346   0.578009892538184   0.474318455263159   1.0
H225   H   0.998550666579099   0.526942016594504   0.292342136842109   1.0
H226   H   0.797973438168555   0.056010905296254   0.444207947368419   1.0
H227   H   0.039944083720066   0.142025647957865   0.475502615789473   1.0
H228   H   0.983412728976866   0.385562757845946   0.232615821052633   1.0
H229   H   0.863136862771512   0.340540413442383   0.212194744736841   1.0
H230   H   0.895508844438588   0.488533026480674   0.189265802631581   1.0
H231   H   0.834857392927915   0.688506186744092   0.209915763157895   1.0
H232   H   0.802267525953219   0.560942667926817   0.240402623684211   1.0
H233   H   0.209936940029081   0.014295232470992   0.363078971052630   1.0
H234   H   0.739286097951307   0.706063079570981   0.161328968421053   1.0
H235   H   0.682073806420782   0.459519981531486   0.161055213157894   1.0
H236   H   0.637970128468382   0.608035829155703   0.169871078947366   1.0
H237   H   0.587279064805557   0.360401696046907   0.189371007894735   1.0
H238   H   0.970304423587450   0.127385566955034   0.528894726315791   1.0
H239   H   0.570636927973972   0.541771527710949   0.203223681578947   1.0
H240   H   0.587073720723772   0.267863209614781   0.257052673684214   1.0
H241   H   0.479429634417805   0.254559214884935   0.290731531578949   1.0
H242   H   0.483283875277905   0.122086221952372   0.259207878947372   1.0
H243   H   0.398416923363548   0.231324150227529   0.226631565789475   1.0
H244   H   0.402209715504391   0.379328230384068   0.263389486842108   1.0
H245   H   0.306170047656373   0.153659751942406   0.254686857894740   1.0
H246   H   0.309527065072785   0.312963686286189   0.282978963157895   1.0
H247   H   0.306170047656373   0.087562347167250   0.333663136842105   1.0
H248   H   0.724616225031767   0.702611577175865   0.210197347368421   1.0
H249   H   0.287415507343269   0.393533852335850   0.679761536842108   1.0
H250   H   0.574392729251443   0.444601728279530   0.268818402631581   1.0
H251   H   0.443067352739661   0.345282979754948   0.362028926315787   1.0
H252   H   0.989547718318526   0.911647312323467   0.545277347368419   1.0
H253   H   0.554418020531784   0.310113561877969   0.408097418421050   1.0
H254   H   0.142727261568972   0.426065064829743   0.768764699999998   1.0
H255   H   0.067989371237140   0.330097164121540   0.713662326315792   1.0
H256   H   0.765149072460268   0.217575075445843   0.561760373684209   1.0
H257   H   0.788066030014271   0.038776772882166   0.569141531578950   1.0
H258   H   0.677734571044937   0.179800150172490   0.598496005263158   1.0
H259   H   0.579858069730868   0.106655355115279   0.550561452631577   1.0
H260   H   0.574068251742560   0.192469657003130   0.590757057894734   1.0
H261   H   0.536382657060948   0.831967306377486   0.562571268421053   1.0
H262   H   0.511518201639497   0.997907106188762   0.585246794736840   1.0
H263   H   0.524926530791085   0.876199299138641   0.642571268421051   1.0
H264   H   0.542674091209335   0.694629438626450   0.615059428947369   1.0
H265   H   0.437556864669048   0.700418451844627   0.665655213157898   1.0
H266   H   0.660406167815957   0.282113419730237   0.561351873684210   1.0
H267   H   0.121466243036771   0.222016969464647   0.734923376315791   1.0
H268   H   0.092262239941583   0.095778492860838   0.681713897368418   1.0
H269   H   0.162611679215445   0.127930878526883   0.681210481578944   1.0
H270   H   0.164805904744433   0.134477122342041   0.610862057894735   1.0
H271   H   0.195575243490346   0.298802240572478   0.621412323684211   1.0
H272   H   0.104314653833548   0.422524386107270   0.586805481578949   1.0
H273   H   0.085843836154538   0.226615128019134   0.579286271052631   1.0
H274   H   0.246783899815888   0.307118617786074   0.567663636842106   1.0
H275   H   0.477099657926559   0.180802008914426   0.367523694736839   1.0
H276   H   0.871182675524331   0.255839234742865   0.557684136842106   1.0
H277   H   0.926861929580760   0.387933823906302   0.565333847368422   1.0
H278   H   0.234575673931353   0.541827148801019   0.753230221052632   1.0
H279   H   0.459306954026310   0.549675934785007   0.639769423684207   1.0
H280   H   0.665419436552064   0.656286712869729   0.658801531578945   1.0
H281   H   0.699509114148910   0.487709119600972   0.667258905263161   1.0
H282   H   0.634957965998247   0.341876076656639   0.631207323684208   1.0
H283   H   0.605811647610899   0.505566695854753   0.614552323684208   1.0
H284   H   0.557508245147154   0.220424776795326   0.654922849999998   1.0
H285   H   0.511267397668639   0.366925862876158   0.638019426315786   1.0
H286   H   0.475558780131728   0.397285603965990   0.703539950000000   1.0
H287   H   0.527835548664306   0.273440726866561   0.718270478947368   1.0
H288   H   0.431902785315444   0.217764071367604   0.741771010526314   1.0
H289   H   0.209345357421256   0.480650685259398   0.571392057894734   1.0
H290   H   0.447369597252134   0.031762937837399   0.728079947368421   1.0
H291   H   0.349542315729380   0.221148452155020   0.701794160526319   1.0
H292   H   0.304427581572817   0.857473639767093   0.695246273684212   1.0
H293   H   0.257270669868419   0.004453350003928   0.707097318421056   1.0
H294   H   0.282036685707233   0.812161655996164   0.770294944736840   1.0
H295   H   0.294520485716418   0.693760932449948   0.735649952631576   1.0
H296   H   0.200740564316781   0.630925611089410   0.787213102631576   1.0
H297   H   0.774226314745462   0.716717401799492   0.636493113157897   1.0
H298   H   0.727406425884965   0.799369840659608   0.608130739473687   1.0
H299   H   0.816362121502195   0.772238204688371   0.572664426315789   1.0
H300   H   0.766406544028079   0.664547446726999   0.553324242105262   1.0
H301   H   0.370799257952271   0.036093133217946   0.680430476315792   1.0
H302   H   0.368822609542192   0.523368205693473   0.610250481578944   1.0
H303   H   0.103012038783731   0.573322535390091   0.752506257894737   1.0
H304   H   0.922074694661731   0.779363304179540   0.341571005263155   1.0
H305   H   0.708381012352319   0.722640201774965   0.504702618421049   1.0
H306   H   0.725175205383429   0.718799251551211   0.438694702631580   1.0
H307   H   0.119169185208762   0.807040262855743   0.465207852631579   1.0
H308   H   0.142977753241937   0.676148407399857   0.498042057894736   1.0
H309   H   0.022213136727785   0.118846226656785   0.411149978947371   1.0
H310   H   0.953756645919995   0.212063800284930   0.403531626315789   1.0
H311   H   0.920094278131046   0.930161464595486   0.399668442105266   1.0
H312   H   0.990566614843431   0.876221810316409   0.398139452631583   1.0
H313   H   0.935766746447406   0.887121183748611   0.304449986842108   1.0
H314   H   0.871712501224174   0.063848647220723   0.310931557894740   1.0
H315   H   0.844160677248546   0.994166387485016   0.353497355263158   1.0
H316   H   0.778750516765690   0.826868424414833   0.351963144736842   1.0
H317   H   0.831705719593288   0.687804588370312   0.347797394736844   1.0
H318   H   0.773408694211390   0.526474425364889   0.305657939473683   1.0
H319   H   0.731121155880572   0.689441369203308   0.299007918421054   1.0
H320   H   0.667740948126784   0.428525318350580   0.316673681578948   1.0
H321   H   0.737757449084420   0.521665182769610   0.440271076315788   1.0
H322   H   0.636630518446019   0.609260650982293   0.325331536842107   1.0
H323   H   0.644150265401230   0.343167574765943   0.381207918421055   1.0
H324   H   0.517127133401921   0.476842867214202   0.400184228947367   1.0
H325   H   0.108855161091036   0.837467103287025   0.545775557894736   1.0
H326   H   0.726058663243968   0.548963303484832   0.512013184210524   1.0
H327   H   0.584271290942631   0.667119398886094   0.520742115789474   1.0
H328   H   0.085893055945853   0.969483972108229   0.514618423684212   1.0
H329   H   0.580264689803485   0.320545344080571   0.501571052631576   1.0
H330   H   0.037918527816565   0.609972859223731   0.572389952631582   1.0
H331   H   0.043519302851173   0.605764560423495   0.643178115789475   1.0
H332   H   0.428866169098597   0.371935568511446   0.572432321052631   1.0
H333   H   0.472834412495814   0.238817043620159   0.593426273684209   1.0
H334   H   0.338200930170231   0.247890228372000   0.591001794736840   1.0
H335   H   0.971228952729852   0.677450949568680   0.590602847368423   1.0
H336   H   0.382148796130053   0.122965761055269   0.614337057894737   1.0
H337   H   0.632254288097620   0.545712698321580   0.541300021052635   1.0
H338   H   0.261355337261975   0.746866069981664   0.599114163157893   1.0
H339   H   0.205482651644637   0.889314297946726   0.588353900000001   1.0
H340   H   0.190204574472944   0.942920147753483   0.652078378947365   1.0
H341   H   0.227783260546218   0.769199084358398   0.660251794736844   1.0
H342   H   0.292161666871259   0.071630756921984   0.555916794736845   1.0
H343   H   0.542789148327117   0.475663067743149   0.482855244736839   1.0
H344   H   0.109709776597661   0.754692355921001   0.681253373684214   1.0
H345   H   0.013419300669604   0.781578940688547   0.659650478947370   1.0
H346   H   0.327471821063369   0.915076292407683   0.569079163157895   1.0
H347   H   0.261914005315745   0.539789898346115   0.652451792105261   1.0
H348   H   0.288409941903097   0.381855160187627   0.632036005263160   1.0
H349   H   0.962739216743167   0.730132672108866   0.529807944736845   1.0
H350   H   0.465121229870519   0.336253960108053   0.511518378947372   1.0
H351   H   0.502206768809415   0.193003913382334   0.524547378947368   1.0
H352   H   0.104100844835237   0.906325456143037   0.655638371052632   1.0
O353   O   0.443519428592168   0.316882345719051   0.438342144736843   1.0
O354   O   0.209226223994158   0.947095325508293   0.518747331578950   1.0
O355   O   0.432210961696249   0.810758893440457   0.590848115789477   1.0
O356   O   0.684596898065855   0.459441838130516   0.237910521052633   1.0
O357   O   0.231674492269683   0.501647613363154   0.442257931578950   1.0
O358   O   0.593689320083151   0.892932273952702   0.254231605263158   1.0
O359   O   0.489209444228472   0.889648113552170   0.368318457894738   1.0
O360   O   0.344409909456992   0.548172940709300   0.327518463157894   1.0
O361   O   0.681995740166364   0.963327164988584   0.534294731578946   1.0
O362   O   0.742569129531802   0.207889056721974   0.311018392105261   1.0
O363   O   0.729982817739860   0.296853732253076   0.492231571052635   1.0
O364   O   0.554935617303691   0.351472907920019   0.327678981578948   1.0
O365   O   0.565681339836523   0.014684257240909   0.490034205263157   1.0
O366   O   0.386714065322963   0.751441739624632   0.452452610526315   1.0
O367   O   0.152885165505410   0.245552272223954   0.522334252631580   1.0
O368   O   0.289203112799640   0.998508049983812   0.399068431578947   1.0
O369   O   0.888880703853374   0.315078668216458   0.484505302631575   1.0
O370   O   0.931086103729641   0.998585781459170   0.465100036842102   1.0
O371   O   0.993475945014552   0.080102997878782   0.339752599999997   1.0
O372   O   0.819932952026100   0.857083768879718   0.278510547368420   1.0
O373   O   0.733151104500458   0.555264941421285   0.378278934210527   1.0
O374   O   0.100361661092926   0.455211451211241   0.364368442105260   1.0
O375   O   0.702882749100482   0.956035157694700   0.395673652631579   1.0
O376   O   0.104355725115411   0.989456530292273   0.393155247368419   1.0
O377   O   0.269265399052543   0.082084627243617   0.634268900000002   1.0
O378   O   0.397513083956426   0.065852787763326   0.300886857894739   1.0
O379   O   0.152955075032011   0.666250903842716   0.607156794736845   1.0
O380   O   0.054391995022662   0.928625338341220   0.602115476315788   1.0
O381   O   0.538416998397224   0.478657588776315   0.567977321052631   1.0
O382   O   0.321037116148240   0.494466870515659   0.557211639473685   1.0
O383   O   0.633926528247500   0.891941459270285   0.603786534210528   1.0
O384   O   0.073212060364341   0.339059496352590   0.643644694736842   1.0
O385   O   0.184517580565284   0.469205577196618   0.694782321052628   1.0
O386   O   0.178661921141320   0.816492274435440   0.722302589473685   1.0
O387   O   0.340604892497389   0.019026765857163   0.765109692105263   1.0
O388   O   0.461110864719949   0.128432013860653   0.659944423684209   1.0
O389   O   0.207438614428604   0.250673676497499   0.307634252631580   1.0
O390   O   0.583704157972335   0.530716279402412   0.690651005263156   1.0
O391   O   0.841542901813902   0.477054797372460   0.608125744736839   1.0
O392   O   0.399349917422477   0.116352417898661   0.530560544736844   1.0
O393   O   0.628896958383322   0.573033319081446   0.455721102631578   1.0
O394   O   0.816637379219763   0.724143195850672   0.489081534210527   1.0
O395   O   0.989572172065238   0.533955851639270   0.426726292105265   1.0
O396   O   0.890306840937491   0.381966435767147   0.312699973684211   1.0
O397   O   0.919650354897172   0.646033294454980   0.251752652631580   1.0
O398   O   0.035280374944520   0.691066671784938   0.487107928947367   1.0
O399   O   0.776334333728947   0.433346028064115   0.166689521052632   1.0
O400   O   0.480407459660839   0.452105231539818   0.227557936842103   1.0
O401   O   0.710123166137990   0.474672253060732   0.591831005263160   1.0
O402   O   0.369126705504499   0.504787377138733   0.692568642105265   1.0


# Number_of_total_atoms: 402
# Number_of_atom_type: 3
# Name_of_each_atom: C H O
# Number_of_each_atom: 150 202 50
# Created_by: Lihua Chen (lihua.chen@mse.gatech.edu)
# Tool: VASP
# K-points: 1 2 1
# Pseudopotential: PBE-HSE06
# Material_class: MC_Pol
# Geometry_class: GC_PD
# Bandgap_(eV): 4.84
