#======================================================================

# Note: Disordered slab of polyketone
# Common_name: Disordered slab-4

#----------------------------------------------------------------------

data_1
_audit_creation_method   'vasp2cif'
_cell_length_a    23.7529679
_cell_length_b    9.0368691
_cell_length_c    38.0
_cell_angle_alpha    90.0
_cell_angle_beta    90.0
_cell_angle_gamma    90.0

_symmetry_space_group_name_H-M    'P 1'
loop_
_atom_site_label
_atom_site_type_symbol
_atom_site_fract_x
_atom_site_fract_y
_atom_site_fract_z
_atom_site_occupancy
C1   C   0.694628194230837   0.237696604457845   0.287494763157895   1.0
C2   C   0.924561624991711   0.390039344489345   0.522131568421052   1.0
C3   C   0.714600578397615   0.868114333978788   0.213360536842103   1.0
C4   C   0.811295808638718   0.750208210938894   0.228786871052634   1.0
C5   C   0.853387458162651   0.632402133610633   0.215444765789471   1.0
C6   C   0.940105008940797   0.483954780312132   0.244931573684212   1.0
C7   C   0.965007130751019   0.456002444474933   0.281000036842109   1.0
C8   C   0.941974059586883   0.477658351828957   0.345621007894735   1.0
C9   C   0.893470663933329   0.487373995491424   0.370902613157895   1.0
C10   C   0.849530841154383   0.570477943516963   0.429449984210528   1.0
C11   C   0.844579901949849   0.705347618679127   0.458847347368419   1.0
C12   C   0.738374335949821   0.638377754082995   0.468826294736843   1.0
C13   C   0.699242518658060   0.604792991855994   0.501152642105261   1.0
C14   C   0.615269601741012   0.438319174059963   0.523607857894739   1.0
C15   C   0.465877739850775   0.235837564583072   0.537057876315792   1.0
C16   C   0.655353127471706   0.815972060500464   0.210342105263159   1.0
C17   C   0.953917788100917   0.960214627873718   0.369913202631580   1.0
C18   C   0.581707673675595   0.627090526297430   0.226650036842102   1.0
C19   C   0.823050032413001   0.948451660099849   0.308884168421052   1.0
C20   C   0.571317254211422   0.496381329679764   0.370750026315790   1.0
C21   C   0.927176165636126   0.407633978011255   0.310268402631579   1.0
C22   C   0.900341396916552   0.578555741169254   0.403897336842107   1.0
C23   C   0.160871783100418   0.293169456222401   0.518868397368422   1.0
C24   C   0.313025299882632   0.464069264874048   0.516307931578950   1.0
C25   C   0.425221843540655   0.738644493589049   0.479128989473686   1.0
C26   C   0.578209188755736   0.893454968823221   0.467344786842105   1.0
C27   C   0.700126454513502   0.078725650679175   0.411755310526317   1.0
C28   C   0.767229757423280   0.205439868549163   0.482700047368418   1.0
C29   C   0.972298960585888   0.154626019757217   0.464702607894736   1.0
C30   C   0.794813560961366   0.692688477694119   0.481168447368418   1.0
C31   C   0.644760674307143   0.518037237033788   0.493471044736843   1.0
C32   C   0.049951033697980   0.749843073415768   0.501944692105262   1.0
C33   C   0.209509759830894   0.814544851601312   0.484134173684211   1.0
C34   C   0.313749600949869   0.084159258210349   0.438189457894737   1.0
C35   C   0.464812647686017   0.227350299895349   0.418871026315791   1.0
C36   C   0.706163683233875   0.712164105597147   0.346084192105266   1.0
C37   C   0.899032196309243   0.615814275765047   0.244952652631582   1.0
C38   C   0.563676284848597   0.506517838130463   0.253100044736840   1.0
C39   C   0.639342391398593   0.229286589976169   0.309315831578949   1.0
C40   C   0.980600950502698   0.327794346384856   0.516936855263161   1.0
C41   C   0.787286295284389   0.859261500202543   0.332297376315786   1.0
C42   C   0.879038934751392   0.987134449031693   0.325236873684212   1.0
C43   C   0.109897092059811   0.819657219556277   0.508942152631576   1.0
C44   C   0.148115423504613   0.783914552884248   0.478299994736844   1.0
C45   C   0.236727718560175   0.899430168795959   0.454126357894736   1.0
C46   C   0.285913016368788   0.988565032993563   0.464689455263155   1.0
C47   C   0.996445947287285   0.834850379762614   0.513513163157896   1.0
C48   C   0.410743863296339   0.137197273334415   0.415147381578947   1.0
C49   C   0.485126147120333   0.352515297582435   0.393971094736841   1.0
C50   C   0.548057091425612   0.393469547987586   0.397694739473685   1.0
C51   C   0.630783439908576   0.553790880958985   0.373460568421052   1.0
C52   C   0.646912055987748   0.647716873535323   0.341681531578949   1.0
C53   C   0.733305516739236   0.795832430504056   0.315949992105260   1.0
C54   C   0.369999317011661   0.134220445884296   0.448613115789470   1.0
C55   C   0.903035927565078   0.888253963975203   0.354557942105266   1.0
C56   C   0.476011201951735   0.341228069796870   0.272773642105264   1.0
C57   C   0.942681335413248   0.043868600464734   0.404828926315787   1.0
C58   C   0.991176382636375   0.065247597754848   0.430847368421055   1.0
C59   C   0.563937098572005   0.049180207777937   0.325328926315791   1.0
C60   C   0.530560178966098   0.917080098017578   0.311723710526316   1.0
C61   C   0.446457173042361   0.750938485985152   0.329599984210525   1.0
C62   C   0.405258131974321   0.712441026726836   0.359100042105261   1.0
C63   C   0.318043687500627   0.595409122391736   0.380984257894738   1.0
C64   C   0.267195229106505   0.490007639924762   0.375644784210529   1.0
C65   C   0.182405828957485   0.346130221140420   0.399257860526319   1.0
C66   C   0.099843607332957   0.653736812454213   0.393252626315792   1.0
C67   C   0.104836625489654   0.757987564520548   0.360526336842106   1.0
C68   C   0.141303786294429   0.005271084429012   0.333063126315793   1.0
C69   C   0.291427977722314   0.118673125408002   0.308028973684209   1.0
C70   C   0.322573538273502   0.218630454656029   0.281531586842107   1.0
C71   C   0.417980769468393   0.308406934875265   0.260631563157894   1.0
C72   C   0.119765244157129   0.377236259845788   0.406681563157896   1.0
C73   C   0.556114972899870   0.381773273666205   0.512389434210526   1.0
C74   C   0.999700323764593   0.295294019474071   0.478934236842108   1.0
C75   C   0.758994891749929   0.748570785428328   0.204452615789471   1.0
C76   C   0.205780011179151   0.003146532243122   0.329836794736842   1.0
C77   C   0.792595046617308   0.146857632362959   0.516028957894740   1.0
C78   C   0.183929907975838   0.464755641973390   0.745754694736846   1.0
C79   C   0.232125918883597   0.719334763850902   0.747145742105261   1.0
C80   C   0.255853745333440   0.825776363187558   0.718216271052633   1.0
C81   C   0.343775141463482   0.970638603141879   0.704607852631582   1.0
C82   C   0.397116096805739   0.057977314289083   0.716286273684211   1.0
C83   C   0.483909448637782   0.215830900992025   0.693364684210529   1.0
C84   C   0.527491135118318   0.208007217898064   0.664028634210524   1.0
C85   C   0.626922970750108   0.301136662475280   0.648595473684210   1.0
C86   C   0.668568478131107   0.432985601174636   0.655503376315792   1.0
C87   C   0.741759112973838   0.608887186381843   0.633913639473683   1.0
C88   C   0.788443889573898   0.641730275809792   0.606911265789471   1.0
C89   C   0.854587131404323   0.516509982423003   0.565560242105263   1.0
C90   C   0.902682287546895   0.396291454525994   0.560790610526318   1.0
C91   C   0.144212871183981   0.351419885013051   0.727234955263157   1.0
C92   C   0.117790842465624   0.162980738539190   0.679299431578947   1.0
C93   C   0.013496397643849   0.788529226344551   0.580763636842107   1.0
C94   C   0.146423032887611   0.185266875227839   0.577068110526312   1.0
C95   C   0.118717177233250   0.663275580698631   0.611218899999997   1.0
C96   C   0.390388293329863   0.053816846810364   0.559961899999998   1.0
C97   C   0.748507793840787   0.088032269937386   0.540663168421055   1.0
C98   C   0.391049318093849   0.581975387913943   0.622505742105261   1.0
C99   C   0.298766054409562   0.423491140310972   0.636699428947367   1.0
C100   C   0.446002358298983   0.646754416305534   0.639885478947370   1.0
C101   C   0.577207052934213   0.307355840752415   0.673956007894738   1.0
C102   C   0.432703173905267   0.119691287771339   0.685976531578945   1.0
C103   C   0.306466123755420   0.908304946012777   0.731885221052629   1.0
C104   C   0.183622523230035   0.623350071541921   0.733450476315788   1.0
C105   C   0.151517225769503   0.293136103963263   0.690746271052632   1.0
C106   C   0.116519544490266   0.214558203570746   0.611826007894734   1.0
C107   C   0.771203934477597   0.030866276462937   0.576114426315790   1.0
C108   C   0.632484503126030   0.879921188633794   0.613789692105264   1.0
C109   C   0.482406242800508   0.719854822285740   0.612827850000002   1.0
C110   C   0.820515784892713   0.502921327033498   0.599941005263155   1.0
C111   C   0.519125864688263   0.330350320112530   0.542557107894737   1.0
C112   C   0.261111749323753   0.865403018839785   0.604495213157897   1.0
C113   C   0.673856027902936   0.944257840361992   0.588516531578946   1.0
C114   C   0.697701414398828   0.494699574656892   0.623681271052632   1.0
C115   C   0.115892246038023   0.268968552393879   0.547026163157895   1.0
C116   C   0.124577425964524   0.919780435903405   0.365902652631576   1.0
C117   C   0.226905497565212   0.113726655617931   0.305060536842106   1.0
C118   C   0.385997199954119   0.202142210956666   0.284828989473681   1.0
C119   C   0.504849922354332   0.457507324079749   0.247502678947370   1.0
C120   C   0.641497949399408   0.687576109739155   0.232784173684209   1.0
C121   C   0.222880893128306   0.483899053047033   0.402499952631580   1.0
C122   C   0.217542587593861   0.355414465392663   0.532981571052630   1.0
C123   C   0.344848906228684   0.556202911028116   0.488539444736844   1.0
C124   C   0.391453381284620   0.645979822812748   0.505871021052634   1.0
C125   C   0.481501109593971   0.797669526938265   0.494371013157895   1.0
C126   C   0.520485816848179   0.839996099976709   0.462618376315788   1.0
C127   C   0.659895822955242   0.057092118331113   0.442739486842108   1.0
C128   C   0.755723818411759   0.172408494884586   0.415118468421056   1.0
C129   C   0.726855867977662   0.023574049556608   0.604356007894737   1.0
C130   C   0.790755226002723   0.134740924818750   0.449257899999999   1.0
C131   C   0.098399505688718   0.494101845516383   0.381226289473687   1.0
C132   C   0.360089085962180   0.605047526913943   0.351368452631576   1.0
C133   C   0.256219910102267   0.408795674599290   0.502231597368421   1.0
C134   C   0.603948995359019   0.106091234629041   0.296047410526313   1.0
C135   C   0.349875646487107   0.506318587706446   0.649474684210524   1.0
C136   C   0.130483925758178   0.110362736138335   0.640700744736840   1.0
C137   C   0.491360909050861   0.857457756027472   0.339723689473686   1.0
C138   C   0.352944690334887   0.996444000721446   0.590456531578944   1.0
C139   C   0.435645985106561   0.170294908886085   0.569796005263157   1.0
C140   C   0.304853710512532   0.896785547109452   0.577086268421056   1.0
C141   C   0.065283719766235   0.653327356484560   0.630427844736843   1.0
C142   C   0.974037602265270   0.777164748352945   0.549494373684212   1.0
C143   C   0.213463059494138   0.759536773637677   0.595105481578948   1.0
C144   C   0.173573214823399   0.725321350510654   0.625479423684212   1.0
C145   C   0.738976260730766   0.340962557485753   0.301413184210524   1.0
C146   C   0.582987324291381   0.797138491250251   0.598081007894734   1.0
C147   C   0.537199652427432   0.791273473243074   0.625687844736845   1.0
C148   C   0.777417823227047   0.406815055006163   0.272478907894737   1.0
C149   C   0.014115347665673   0.658450679561135   0.604121794736841   1.0
C150   C   0.612011053153488   0.944479034226575   0.435657902631576   1.0
H151   H   0.504176372839709   0.944479034226575   0.288484173684210   1.0
H152   H   0.621003617825799   0.341217092543701   0.308531610526316   1.0
H153   H   0.645274269073553   0.206070927817244   0.336965763157892   1.0
H154   H   0.588043618751321   0.030257570069260   0.349568418421050   1.0
H155   H   0.556169896562693   0.825765385934382   0.303242131578948   1.0
H156   H   0.423037055508338   0.806278780778179   0.307763149999999   1.0
H157   H   0.686225025378832   0.272055982309183   0.260894778947368   1.0
H158   H   0.470799449023801   0.660088547702877   0.316089428947372   1.0
H159   H   0.535014544435100   0.141999810531722   0.331181576315792   1.0
H160   H   0.713560539944147   0.132129234891764   0.283526271052629   1.0
H161   H   0.305864198974476   0.008944845732024   0.306142105263156   1.0
H162   H   0.800518027054629   0.502113370215795   0.280821047368420   1.0
H163   H   0.801802173950648   0.327971221802912   0.254526339473685   1.0
H164   H   0.384797526712440   0.822235568289905   0.364305294736845   1.0
H165   H   0.988435600925477   0.385203477164453   0.461531589473687   1.0
H166   H   0.223251230007342   0.893620866988101   0.318692057894736   1.0
H167   H   0.858367627398678   0.470841853845158   0.444197405263161   1.0
H168   H   0.857534118925827   0.546808075376461   0.359592136842103   1.0
H169   H   0.430955859625442   0.679376311868900   0.382921018421051   1.0
H170   H   0.976201508696519   0.414793659011835   0.358057926315787   1.0
H171   H   0.877536057294130   0.373208338272818   0.376523671052631   1.0
H172   H   0.750010679718052   0.454453235357811   0.252234207894737   1.0
H173   H   0.119761067836919   0.957105243452069   0.311544721052634   1.0
H174   H   0.635625171707488   0.614896148047556   0.397842105263159   1.0
H175   H   0.339097864903025   0.561414893129303   0.406436821052630   1.0
H176   H   0.390203280660351   0.156241490761438   0.390281576315786   1.0
H177   H   0.961331670052061   0.585527580564381   0.341510573684211   1.0
H178   H   0.363166482450389   0.251672783442224   0.457763171052633   1.0
H179   H   0.383496678745566   0.063576819985144   0.470476352631579   1.0
H180   H   0.271118978778226   0.058021643801389   0.486665826315786   1.0
H181   H   0.319020449650843   0.913085517637960   0.474339434210528   1.0
H182   H   0.244739348972047   0.819856469980294   0.431613118421055   1.0
H183   H   0.203401226336858   0.973604464404602   0.443931578947371   1.0
H184   H   0.880192356930692   0.700279569170696   0.477021065789472   1.0
H185   H   0.847665966828508   0.813117222202543   0.446426294736845   1.0
H186   H   0.310053258649838   0.710116792551524   0.384989486842102   1.0
H187   H   0.811144202320925   0.547837214992967   0.415976273684208   1.0
H188   H   0.137485387668121   0.715749650506723   0.341792057894736   1.0
H189   H   0.065022586082812   0.754756202012487   0.347215752631577   1.0
H190   H   0.060374859513871   0.679453562074947   0.409068460526314   1.0
H191   H   0.133902429093922   0.664548289185689   0.411028913157892   1.0
H192   H   0.094303272308132   0.280698167908618   0.398742073684211   1.0
H193   H   0.113913348066284   0.415778480181814   0.434321052631581   1.0
H194   H   0.186544457040249   0.285633660445519   0.372226313157896   1.0
H195   H   0.195970643314851   0.266257657754501   0.419276289473686   1.0
H196   H   0.249096391866047   0.510667339421794   0.349713176315788   1.0
H197   H   0.280019041325779   0.374458671753914   0.374613110526319   1.0
H198   H   0.124059654877904   0.116216765826564   0.335736826315788   1.0
H199   H   0.994422402263254   0.366491465501035   0.281334226315792   1.0
H200   H   0.473733587624643   0.905948211643341   0.510247381578949   1.0
H201   H   0.925816221896213   0.381286146990888   0.233486878947367   1.0
H202   H   0.782629891905003   0.146193630269579   0.392573710526314   1.0
H203   H   0.745198817870673   0.291210791135619   0.414505307894736   1.0
H204   H   0.639679326135912   0.164485618144006   0.449223668421055   1.0
H205   H   0.686751469065896   0.024049789544918   0.465042115789473   1.0
H206   H   0.632197995771300   0.840748329529305   0.425578971052630   1.0
H207   H   0.815754030467915   0.239478405192344   0.526378931578947   1.0
H208   H   0.583522120618873   0.983740552355684   0.415957902631575   1.0
H209   H   0.495541616085795   0.913063574197395   0.446057873684211   1.0
H210   H   0.504597137101342   0.724436154552684   0.510721005263157   1.0
H211   H   0.376415235251507   0.714343964548519   0.527818378947366   1.0
H212   H   0.834581345095827   0.166941966659671   0.447386892105264   1.0
H213   H   0.426148174098280   0.579087197356884   0.518436834210526   1.0
H214   H   0.311686545073805   0.621181178777945   0.473768434210527   1.0
H215   H   0.528223788825983   0.741953117368936   0.447089447368420   1.0
H216   H   0.268491904963170   0.303194941708298   0.489194771052631   1.0
H217   H   0.822835473961973   0.058564077242195   0.506771086842107   1.0
H218   H   0.369961414379716   0.672847291768342   0.608281005263159   1.0
H219   H   0.721694226682303   0.992877466820893   0.530221036842107   1.0
H220   H   0.008894922137287   0.411883104514594   0.528871034210525   1.0
H221   H   0.234992929030987   0.493659457787210   0.485742068421054   1.0
H222   H   0.079744998939688   0.206956123775214   0.539431623684209   1.0
H223   H   0.426708024137056   0.018317737943114   0.416702673684213   1.0
H224   H   0.360051187540229   0.475954221800116   0.466271050000003   1.0
H225   H   0.988444273525921   0.556667662697471   0.290928992105265   1.0
H226   H   0.790241631236320   0.015540149851233   0.456034207894739   1.0
H227   H   0.046763789884125   0.287492700320293   0.475536847368424   1.0
H228   H   0.973406127492808   0.522607171547939   0.226844686842107   1.0
H229   H   0.829150537436632   0.520095516266800   0.207728936842102   1.0
H230   H   0.875670858798237   0.678911549133758   0.191207886842108   1.0
H231   H   0.831141640198993   0.856982027104941   0.233894752631578   1.0
H232   H   0.794005426159821   0.707151362854198   0.253636813157897   1.0
H233   H   0.225912034344141   0.027247810859627   0.354086826315786   1.0
H234   H   0.720587055565382   0.975319560620832   0.199178997368421   1.0
H235   H   0.644895575344080   0.775128412560498   0.183847326315792   1.0
H236   H   0.625959057520554   0.904465286544870   0.217515744736843   1.0
H237   H   0.583905306418572   0.582008308607676   0.200368378947367   1.0
H238   H   0.987092674006433   0.232174780533228   0.534431557894735   1.0
H239   H   0.555613907094113   0.727567902914515   0.225807892105266   1.0
H240   H   0.589180335649758   0.405819256583015   0.246968421052628   1.0
H241   H   0.475312598725821   0.386586777050915   0.300784163157893   1.0
H242   H   0.501932164864336   0.241160149149444   0.272439455263161   1.0
H243   H   0.417403898398732   0.263103954886326   0.234826342105265   1.0
H244   H   0.389596859599173   0.402942054344905   0.256707944736846   1.0
H245   H   0.312932793547873   0.185178647768616   0.254510478947367   1.0
H246   H   0.314271544146699   0.343507553960251   0.284073678947365   1.0
H247   H   0.301670967188905   0.145994811410958   0.336134257894734   1.0
H248   H   0.720864894529662   0.903303169457217   0.240157881578945   1.0
H249   H   0.302336164063099   0.307920228699558   0.642021794736841   1.0
H250   H   0.569624863594413   0.541120353286956   0.281402589473686   1.0
H251   H   0.455369764550561   0.451896841130519   0.401692139473681   1.0
H252   H   0.012755395505756   0.562577010216955   0.583461794736841   1.0
H253   H   0.576061983395348   0.298846201058730   0.402705242105263   1.0
H254   H   0.873923864478428   0.629535897559919   0.569333636842103   1.0
H255   H   0.099607851530841   0.375642743347917   0.730141792105265   1.0
H256   H   0.148342830876302   0.253487493804684   0.745844955263159   1.0
H257   H   0.072306059067252   0.170560852762598   0.686298636842103   1.0
H258   H   0.717943280679464   0.172950928325385   0.545614426315787   1.0
H259   H   0.745430401562579   0.972088187046992   0.627117849999998   1.0
H260   H   0.689862587655838   0.845539878407664   0.570908636842105   1.0
H261   H   0.647358518090698   0.006233962158419   0.571045742105262   1.0
H262   H   0.597604701852859   0.689202557996552   0.591853115789476   1.0
H263   H   0.569047992524759   0.850619314603108   0.573311794736838   1.0
H264   H   0.519471152066011   0.899707078859869   0.631546794736842   1.0
H265   H   0.554468837555241   0.751923307155131   0.651421007894740   1.0
H266   H   0.439527340076097   0.730389400019085   0.661846526315792   1.0
H267   H   0.718141138059636   0.138525288586948   0.608614165789476   1.0
H268   H   0.131300728950173   0.085110727121190   0.698859428947365   1.0
H269   H   0.109930818371545   0.009874371202301   0.632725215789470   1.0
H270   H   0.175960356516121   0.070946717597138   0.638884955263158   1.0
H271   H   0.144760192262119   0.065646076471332   0.572381797368422   1.0
H272   H   0.193208664252857   0.215963469029333   0.581999952631577   1.0
H273   H   0.102441135366497   0.378707798257253   0.554892636842105   1.0
H274   H   0.243914188929629   0.261145289799536   0.541569257894736   1.0
H275   H   0.474512492394688   0.329365487876771   0.365513152631579   1.0
H276   H   0.885438156130377   0.286419242257253   0.564695426315787   1.0
H277   H   0.937187251450794   0.404966992384566   0.580045742105263   1.0
H278   H   0.225251009580155   0.418268180956609   0.751597055263161   1.0
H279   H   0.472403509626261   0.566837102907684   0.653280473684212   1.0
H280   H   0.645531226436759   0.532998226122366   0.668064684210528   1.0
H281   H   0.702004173550037   0.421720748395039   0.673788373684211   1.0
H282   H   0.642331777832275   0.189084580189395   0.652659431578947   1.0
H283   H   0.607674887650568   0.311350421132026   0.622149160526313   1.0
H284   H   0.546272198683852   0.092945398534098   0.662561531578945   1.0
H285   H   0.509405142588520   0.229430533634705   0.637623376315787   1.0
H286   H   0.469519478448000   0.331623017533808   0.695301010526315   1.0
H287   H   0.503822732821526   0.196731398931071   0.719117581578949   1.0
H288   H   0.392855408186698   0.138016207405286   0.738938371052633   1.0
H289   H   0.210671850400637   0.425328236745180   0.555913268421051   1.0
H290   H   0.428202553163892   0.987178767478220   0.729377321052631   1.0
H291   H   0.318119492764524   0.033422250190611   0.686131002631576   1.0
H292   H   0.273118754141038   0.752985799030775   0.695794684210526   1.0
H293   H   0.225061500630410   0.905616005879736   0.709904421052634   1.0
H294   H   0.221887425697233   0.773446259169560   0.772913910526313   1.0
H295   H   0.267759571215521   0.637658445224133   0.747348899999999   1.0
H296   H   0.165734396500405   0.487274381345195   0.773888115789475   1.0
H297   H   0.765541543126488   0.581289010814601   0.660461002631578   1.0
H298   H   0.719412436034993   0.712883414456009   0.639654952631581   1.0
H299   H   0.815699426765107   0.728508405637967   0.616246531578945   1.0
H300   H   0.770584984455773   0.678955878646065   0.582065481578951   1.0
H301   H   0.356645208955129   0.874853150191143   0.686076265789474   1.0
H302   H   0.404104389835005   0.493747685246433   0.603303371052633   1.0
H303   H   0.822746823987416   0.502921327033498   0.543532189473687   1.0
H304   H   0.870719919593711   0.868479482567693   0.373947344736841   1.0
H305   H   0.719138777600925   0.723207764512161   0.451428965789475   1.0
H306   H   0.124880638600111   0.749179071322388   0.530513160526318   1.0
H307   H   0.139286985690745   0.857911541509438   0.454531621052631   1.0
H308   H   0.136171690780586   0.669273155677338   0.470844773684213   1.0
H309   H   0.008457132634781   0.961608905013350   0.442610489473687   1.0
H310   H   0.028214634180515   0.104840912213724   0.418984163157894   1.0
H311   H   0.934535123924448   0.158222110354572   0.394505252631582   1.0
H312   H   0.907300464124319   0.993489548277289   0.418744742105261   1.0
H313   H   0.911152909022370   0.781624091467698   0.341307894736843   1.0
H314   H   0.911039205336529   0.000269318939232   0.303139436842102   1.0
H315   H   0.872972160249496   0.095069961785768   0.338807857894736   1.0
H316   H   0.780520589176561   0.948661876711263   0.351905221052633   1.0
H317   H   0.813493441381695   0.767946788119353   0.342078963157895   1.0
H318   H   0.744954709428121   0.702204893064128   0.296807942105261   1.0
H319   H   0.703566159410336   0.868523789948448   0.302181544736840   1.0
H320   H   0.646710022287365   0.589566479390520   0.316892121052632   1.0
H321   H   0.742483414041075   0.552529149725096   0.449607850000000   1.0
H322   H   0.622233165229005   0.744642057501970   0.335539468421054   1.0
H323   H   0.654048098974613   0.454552860569819   0.376826336842107   1.0
H324   H   0.553669055394124   0.466326794531085   0.421255313157893   1.0
H325   H   0.616225486500156   0.529025589183313   0.545212084210526   1.0
H326   H   0.686460785390949   0.707782012688440   0.510644713157895   1.0
H327   H   0.724409630511900   0.552872343807657   0.522168410526319   1.0
H328   H   0.109345594661455   0.943505190309772   0.514110565789473   1.0
H329   H   0.563444701156691   0.285202249969515   0.496623694736840   1.0
H330   H   0.417340942055496   0.262981954668348   0.584900215789474   1.0
H331   H   0.464930527692076   0.108006012834686   0.585333902631582   1.0
H332   H   0.338062322729783   0.105217436423864   0.600974423684214   1.0
H333   H   0.936467446663791   0.847819362571045   0.557859163157893   1.0
H334   H   0.379118114330460   0.937297398719650   0.609079689473681   1.0
H335   H   0.282001791447712   0.958565793544579   0.556327505263155   1.0
H336   H   0.230433528266588   0.659092738213943   0.582613899999998   1.0
H337   H   0.642238951537507   0.357074265909198   0.536365810526313   1.0
H338   H   0.164281938005736   0.824149914930160   0.641948642105262   1.0
H339   H   0.188476783989593   0.637259966507649   0.642559426315792   1.0
H340   H   0.060589737924921   0.735369222068293   0.653961797368424   1.0
H341   H   0.062164248535865   0.539659803194446   0.641288639473686   1.0
H342   H   0.189571421935867   0.825477919116921   0.575172060526313   1.0
H343   H   0.531873875853634   0.460318253364981   0.497657878947365   1.0
H344   H   0.318784689638718   0.800590638189064   0.560566899999998   1.0
H345   H   0.266003908505262   0.470686932933440   0.654987060526317   1.0
H346   H   0.289992544468518   0.448311727786340   0.608702850000000   1.0
H347   H   0.966556267690656   0.812586186514530   0.490357852631575   1.0
H348   H   0.003843128167574   0.961232790237055   0.517581539473682   1.0
H349   H   0.956031267149569   0.658926840049062   0.546544728947367   1.0
H350   H   0.437169748374899   0.304965765189628   0.521802602631581   1.0
H351   H   0.480280239001210   0.150686314577690   0.515302657894736   1.0
H352   H   0.972088254285055   0.665953554644275   0.619751794736842   1.0
O353   O   0.240558641937120   0.766452885767706   0.507502605263156   1.0
O354   O   0.473422350728640   0.723230139518122   0.581339163157892   1.0
O355   O   0.671355506694390   0.640612908734063   0.255518463157898   1.0
O356   O   0.739797240242979   0.364842642237676   0.333021063157894   1.0
O357   O   0.078014705690734   0.463184068916078   0.353518436842108   1.0
O358   O   0.503203787009710   0.886040752764693   0.370321073684210   1.0
O359   O   0.355104424655920   0.546498233553038   0.323436836842106   1.0
O360   O   0.220708634056628   0.571861243403426   0.425886857894739   1.0
O361   O   0.497280257765176   0.206137211835902   0.442984231578947   1.0
O362   O   0.604083896395956   0.054270211792712   0.266618428947368   1.0
O363   O   0.730632187651800   0.292594091022075   0.481255281578946   1.0
O364   O   0.541098024217852   0.525407134645782   0.345689473684210   1.0
O365   O   0.599271714588561   0.897936266444319   0.496239510526315   1.0
O366   O   0.408487130570322   0.765147256586907   0.448971094736841   1.0
O367   O   0.156291184984930   0.256386661614918   0.487857918421049   1.0
O368   O   0.294943483673045   0.128344871123559   0.410213171052632   1.0
O369   O   0.894611557151983   0.445091751965293   0.498144752631582   1.0
O370   O   0.930350240569304   0.097692617900151   0.478755247368419   1.0
O371   O   0.999592076239026   0.943317337638540   0.355939463157895   1.0
O372   O   0.809649673294089   0.000914741588986   0.280521092105260   1.0
O373   O   0.731697279816558   0.698088312466538   0.373171052631577   1.0
O374   O   0.124472074919112   0.973726033057176   0.395355223684213   1.0
O375   O   0.690628643505221   0.031297686938942   0.382357849999998   1.0
O376   O   0.196820852858558   0.181206021895349   0.285560510526317   1.0
O377   O   0.259335205012420   0.927858244621468   0.632309952631580   1.0
O378   O   0.481703143294361   0.495418872449974   0.221060502631580   1.0
O379   O   0.122981718002492   0.606253541948504   0.582898373684209   1.0
O380   O   0.047172353565131   0.890057708150273   0.583192057894735   1.0
O381   O   0.536412075056944   0.358014757566863   0.572493636842104   1.0
O382   O   0.330046520207695   0.436548760012471   0.546017057894737   1.0
O383   O   0.637540793375969   0.893156104252967   0.645288905263158   1.0
O384   O   0.818587634263594   0.977643363230747   0.579824163157895   1.0
O385   O   0.081576466913845   0.309801223080683   0.618040221052631   1.0
O386   O   0.182721566343716   0.355978842274034   0.670898905263158   1.0
O387   O   0.145096807039430   0.671929164050852   0.715568631578947   1.0
O388   O   0.316814464267431   0.919205081768865   0.763812594736841   1.0
O389   O   0.409026099008031   0.112431992624522   0.303710536842104   1.0
O390   O   0.418191151599210   0.091595428775214   0.656145210526319   1.0
O391   O   0.685871385360649   0.469491474652429   0.592434426315791   1.0
O392   O   0.825736206211097   0.392949478486969   0.619062321052631   1.0
O393   O   0.383631259822487   0.009774745990292   0.530023676315793   1.0
O394   O   0.622843438440384   0.532024382205556   0.464844755263158   1.0
O395   O   0.800168883316680   0.734572242503766   0.512160552631578   1.0
O396   O   0.943855954943636   0.646046095765620   0.410055260526313   1.0
O397   O   0.889559763182270   0.316274936415752   0.309834228947366   1.0
O398   O   0.905877559831168   0.716977608981857   0.266986847368422   1.0
O399   O   0.044915620839113   0.636131201679127   0.485942139473686   1.0
O400   O   0.754582925193105   0.654002324765329   0.181784178947368   1.0
O401   O   0.577901804009933   0.384517520564728   0.699540742105263   1.0
O402   O   0.357579892153183   0.525119236262924   0.679898902631578   1.0


# Number_of_total_atoms: 402
# Number_of_atom_type: 3
# Name_of_each_atom: C H O
# Number_of_each_atom: 150 202 50
# Created_by: Lihua Chen (lihua.chen@mse.gatech.edu)
# Tool: VASP
# K-points: 1 2 1
# Pseudopotential: PBE-HSE06
# Material_class: MC_Pol
# Geometry_class: GC_PD
# Bandgap_(eV): 4.62
