#======================================================================

# Note: Disordered slab of polyketone
# Common_name: Disordered slab-5

#----------------------------------------------------------------------

data_1
_audit_creation_method   'vasp2cif'
_cell_length_a    24.3743973
_cell_length_b    8.8847924
_cell_length_c    38.0
_cell_angle_alpha    90.0
_cell_angle_beta    90.0
_cell_angle_gamma    90.0

_symmetry_space_group_name_H-M    'P 1'
loop_
_atom_site_label
_atom_site_type_symbol
_atom_site_fract_x
_atom_site_fract_y
_atom_site_fract_z
_atom_site_occupancy
C1   C   0.701342272778987   0.137740629707906   0.261981563157896   1.0
C2   C   0.729388151886731   0.794165533907126   0.219207863157898   1.0
C3   C   0.825152489001233   0.740444672629607   0.236855255263158   1.0
C4   C   0.872665622792653   0.634871052248783   0.232613110526316   1.0
C5   C   0.897059940842105   0.530929388963550   0.295026276315788   1.0
C6   C   0.940466093083664   0.513382237270960   0.324313113157892   1.0
C7   C   0.950809142673656   0.463634580814741   0.392260499999999   1.0
C8   C   0.916096493594118   0.457612931957755   0.425694715789476   1.0
C9   C   0.838354879035307   0.607262044749632   0.459473660526314   1.0
C10   C   0.801143796897080   0.742886823106865   0.458986884210525   1.0
C11   C   0.697986509803876   0.690989414676700   0.476255215789472   1.0
C12   C   0.665948519678885   0.624910099193762   0.508536892105262   1.0
C13   C   0.587558975253103   0.445738788449354   0.531605268421053   1.0
C14   C   0.459001983199805   0.209909012618013   0.538202586842104   1.0
C15   C   0.674129312727665   0.720129060077980   0.210460563157895   1.0
C16   C   0.594094595315390   0.554835248598494   0.225652594736843   1.0
C17   C   0.916683072200520   0.279995017103609   0.537321092105266   1.0
C18   C   0.572793420414129   0.422564133293648   0.248352652631581   1.0
C19   C   0.986941281210676   0.007585354498545   0.372486818421052   1.0
C20   C   0.705133119332558   0.736088904001853   0.371347326315792   1.0
C21   C   0.881888419042056   0.598730399148103   0.429147318421052   1.0
C22   C   0.181645430880046   0.234343809766450   0.527526352631583   1.0
C23   C   0.316832252504554   0.459301142478019   0.523168463157894   1.0
C24   C   0.439218905322427   0.668411543301787   0.478850013157896   1.0
C25   C   0.562627220325155   0.958682658696674   0.463778947368418   1.0
C26   C   0.672032780888493   0.171292285906418   0.408797415789472   1.0
C27   C   0.757844383705027   0.235694544759426   0.473818428947368   1.0
C28   C   0.978530747096670   0.077975350330078   0.473092131578944   1.0
C29   C   0.757593977513444   0.727129628825089   0.487068378947370   1.0
C30   C   0.613832597206411   0.534238402689070   0.499734178947371   1.0
C31   C   0.057326574388774   0.615072806878416   0.478163168421055   1.0
C32   C   0.199750473419911   0.810080300807030   0.471121036842106   1.0
C33   C   0.316512359466628   0.036646427439315   0.422294718421050   1.0
C34   C   0.457463549262819   0.256865438971879   0.412063197368418   1.0
C35   C   0.569617949076424   0.489611631218302   0.369052586842102   1.0
C36   C   0.836709706048815   0.938839752744251   0.337831597368421   1.0
C37   C   0.916970102887426   0.457882988914854   0.360215839473682   1.0
C38   C   0.488705244826711   0.287096916299362   0.267981578947371   1.0
C39   C   0.578287037275793   0.989600679921345   0.316797357894735   1.0
C40   C   0.787904474667769   0.894730776151846   0.361734189473687   1.0
C41   C   0.984073497480900   0.657009689950662   0.528705294736845   1.0
C42   C   0.883935493248075   0.021981065083750   0.357300005263156   1.0
C43   C   0.113651835813805   0.662975107893345   0.491850000000000   1.0
C44   C   0.141431033455746   0.765532529493882   0.463828942105266   1.0
C45   C   0.229166700257238   0.890599987457222   0.440455286842102   1.0
C46   C   0.282460161589306   0.962982185154942   0.451439505263160   1.0
C47   C   0.006801989725503   0.690325212325725   0.490163202631578   1.0
C48   C   0.401544258901531   0.189289408720455   0.404105236842106   1.0
C49   C   0.491396494960718   0.317981014390384   0.382089515789474   1.0
C50   C   0.533945304977856   0.422879267274723   0.397439455263161   1.0
C51   C   0.613922749179117   0.595984268580096   0.383407894736841   1.0
C52   C   0.664635761065568   0.610537135341509   0.359105260526313   1.0
C53   C   0.760236085919551   0.748390677085489   0.353255223684208   1.0
C54   C   0.367582208894248   0.128995169318756   0.435184178947367   1.0
C55   C   0.968684435942954   0.179969900028276   0.534721073684210   1.0
C56   C   0.667876965310647   0.109928961311468   0.294823697368422   1.0
C57   C   0.939555547492454   0.940966769240440   0.350402631578945   1.0
C58   C   0.003109738430332   0.176255587018552   0.500623702631579   1.0
C59   C   0.527360551392995   0.888743061683691   0.305426347368424   1.0
C60   C   0.441647851534775   0.781458461539295   0.331763118421051   1.0
C61   C   0.411250964552053   0.742752008476870   0.363994699999999   1.0
C62   C   0.323240788398898   0.616817687265268   0.380565744736842   1.0
C63   C   0.289959842412188   0.476206422110664   0.376310550000000   1.0
C64   C   0.198646807156131   0.347492047197413   0.392099984210525   1.0
C65   C   0.086549680553539   0.610683542814122   0.361326318421050   1.0
C66   C   0.078635568970562   0.738114590049399   0.336844694736840   1.0
C67   C   0.148019860987496   0.943769569675034   0.316889513157896   1.0
C68   C   0.207557841850722   0.966493848522560   0.324428960526319   1.0
C69   C   0.335696337402361   0.136817524290159   0.277055239473682   1.0
C70   C   0.428170332646545   0.268503426146459   0.260128926315787   1.0
C71   C   0.145070069076127   0.425220526255629   0.391028957894740   1.0
C72   C   0.539488063567426   0.367672845119039   0.517897355263159   1.0
C73   C   0.004918927780011   0.078583310511568   0.436349971052628   1.0
C74   C   0.983244652371361   0.956420411128569   0.411623705263160   1.0
C75   C   0.911895294330009   0.631415631050650   0.264807852631577   1.0
C76   C   0.300569269870728   0.075240384907588   0.307610563157894   1.0
C77   C   0.752621526358723   0.187150799381648   0.540968444736841   1.0
C78   C   0.156093919089436   0.593901923921152   0.740581792105260   1.0
C79   C   0.222048571432779   0.812309064193776   0.733342850000000   1.0
C80   C   0.257659552468198   0.893087226213638   0.704927584210523   1.0
C81   C   0.354675301038107   0.996894063613688   0.692422315789472   1.0
C82   C   0.401876361472127   0.095635008872016   0.705736789473683   1.0
C83   C   0.487905192223977   0.255312043081616   0.689539157894735   1.0
C84   C   0.529973859086972   0.268604756595103   0.659929692105266   1.0
C85   C   0.617368967724175   0.422552968148139   0.645899431578947   1.0
C86   C   0.667503548898004   0.507394500292435   0.659443631578945   1.0
C87   C   0.752629661944503   0.643514754492180   0.641038902631578   1.0
C88   C   0.803429071864684   0.628207947773774   0.614375218421053   1.0
C89   C   0.863545179843278   0.460156412883663   0.578541794736843   1.0
C90   C   0.893178950521168   0.305870309361424   0.574647057894737   1.0
C91   C   0.108818986059603   0.501609424211196   0.726312589473686   1.0
C92   C   0.095735540505039   0.248660531449218   0.686039952631582   1.0
C93   C   0.011269874558089   0.739825547302601   0.560468689473687   1.0
C94   C   0.159622154021427   0.211912345864157   0.593936531578947   1.0
C95   C   0.106472359831436   0.688659320841303   0.601756531578950   1.0
C96   C   0.372115822531541   0.082331118957825   0.551662742105265   1.0
C97   C   0.778275391449370   0.703369760220845   0.211028952631580   1.0
C98   C   0.381572437895727   0.644269122146284   0.628254692105266   1.0
C99   C   0.287707433898277   0.544772976350018   0.651737578947369   1.0
C100   C   0.440823076269460   0.688603078671818   0.638526528947367   1.0
C101   C   0.576083766387121   0.370475229111712   0.671730221052634   1.0
C102   C   0.445528850061045   0.135151632805737   0.679621800000000   1.0
C103   C   0.308372572559982   0.974057300427191   0.719622852631581   1.0
C104   C   0.171708660053717   0.732453163452647   0.717696268421051   1.0
C105   C   0.123260258008514   0.406750685587205   0.692211528947368   1.0
C106   C   0.111748432852529   0.211360639107333   0.619627847368420   1.0
C107   C   0.764531498795257   0.070490898583067   0.568994689473683   1.0
C108   C   0.630747891354012   0.934033596553142   0.612699955263160   1.0
C109   C   0.477033157246517   0.780107726546319   0.612038113157894   1.0
C110   C   0.825772245863902   0.471130625404371   0.608723900000001   1.0
C111   C   0.505489389064813   0.307885246705368   0.548252136842102   1.0
C112   C   0.249905391506850   0.887482480738662   0.594512584210527   1.0
C113   C   0.674047304546072   0.971074597083437   0.585540478947365   1.0
C114   C   0.703631617590808   0.553147038078237   0.629065213157894   1.0
C115   C   0.137258626698433   0.237214028771227   0.555690715789474   1.0
C116   C   0.241868273805480   0.042870725938400   0.296794692105266   1.0
C117   C   0.399406725022899   0.154341917994614   0.284350044736840   1.0
C118   C   0.512590926709805   0.403441683116874   0.245018407894740   1.0
C119   C   0.651503181988424   0.599180797966646   0.235271052631582   1.0
C120   C   0.245372089672138   0.451636360124745   0.402718394736844   1.0
C121   C   0.231135836125887   0.321852922528613   0.537139492105261   1.0
C122   C   0.271177765695974   0.357419077118784   0.509731594736841   1.0
C123   C   0.404432391852410   0.602017093837780   0.508723710526318   1.0
C124   C   0.486600577401766   0.778723496116804   0.488284163157893   1.0
C125   C   0.516061876122777   0.845038945423191   0.455631557894733   1.0
C126   C   0.642058772054234   0.110165117645295   0.441310481578945   1.0
C127   C   0.730122471582099   0.227241910570697   0.407307876315791   1.0
C128   C   0.769655760883161   0.165338044364432   0.437518471052634   1.0
C129   C   0.721954199868563   0.058740415814327   0.599548373684208   1.0
C130   C   0.780802621117530   0.150188810264154   0.505449997368423   1.0
C131   C   0.118776097901708   0.862811088304099   0.345723705263161   1.0
C132   C   0.142042338827388   0.551942710557874   0.363960568421049   1.0
C133   C   0.356710169814129   0.512549724853450   0.495092092105260   1.0
C134   C   0.492586546950228   0.866603973774332   0.338926315789472   1.0
C135   C   0.350006463544432   0.559191028481429   0.655787847368423   1.0
C136   C   0.123059313552751   0.150087479815511   0.656416531578948   1.0
C137   C   0.368759747753842   0.628961887730767   0.354005313157892   1.0
C138   C   0.334642124669067   0.028542850365305   0.578562057894736   1.0
C139   C   0.415296287141423   0.181410811579568   0.565673005263157   1.0
C140   C   0.291584670280237   0.919109342385987   0.567033268421049   1.0
C141   C   0.053383605099441   0.706836346564494   0.619301536842109   1.0
C142   C   0.005616311177469   0.669244066974485   0.594129163157895   1.0
C143   C   0.200004945353051   0.799173923298419   0.584835478947369   1.0
C144   C   0.574996691302808   0.874392405612092   0.600137586842102   1.0
C145   C   0.616056209110859   0.026843047002423   0.286092057894734   1.0
C146   C   0.533736216730986   0.805150495131436   0.626658900000002   1.0
C147   C   0.590718171316588   0.017546296298377   0.430865739473681   1.0
C148   C   0.753548654924074   0.224248053336623   0.272592142105260   1.0
C149   C   0.159421197257664   0.757935165710791   0.615203639473684   1.0
C150   C   0.783563981703047   0.312713733187508   0.244339492105262   1.0
H151   H   0.441356443303725   0.685125338437842   0.381610571052633   1.0
H152   H   0.601442469307742   0.933088172099552   0.337368413157897   1.0
H153   H   0.538630729548338   0.780467960061735   0.295207876315793   1.0
H154   H   0.454833650389375   0.673746231819663   0.321010489473686   1.0
H155   H   0.421388688039478   0.824644760411061   0.308886878947369   1.0
H156   H   0.296306719346042   0.713702100681608   0.376834165789475   1.0
H157   H   0.561745159540827   0.092055926934208   0.330963134210528   1.0
H158   H   0.147412625460078   0.883801651910289   0.292623721052628   1.0
H159   H   0.498760956029877   0.942137601324255   0.287660500000001   1.0
H160   H   0.689403503732990   0.024220565918910   0.311239444736842   1.0
H161   H   0.396432202243624   0.843080677945835   0.378126344736842   1.0
H162   H   0.680734731438875   0.218856683696963   0.241768384210523   1.0
H163   H   0.714573459422525   0.036218786608906   0.248092149999998   1.0
H164   H   0.819626321591137   0.245396606002856   0.237623715789475   1.0
H165   H   0.761938852124970   0.344104472266565   0.219176342105264   1.0
H166   H   0.798517967867866   0.423093093317519   0.255323713157892   1.0
H167   H   0.010293600162164   0.286961673972257   0.489968449999999   1.0
H168   H   0.230988095036920   0.863823931327872   0.329407944736843   1.0
H169   H   0.338916884726416   0.637740832301269   0.408155242105266   1.0
H170   H   0.859738058015488   0.613249781728157   0.484842100000002   1.0
H171   H   0.318309343386311   0.973978300269572   0.320621089473683   1.0
H172   H   0.659663309910847   0.207511500212434   0.309742073684213   1.0
H173   H   0.311174623382378   0.370565394414839   0.378476294736842   1.0
H174   H   0.311343021392368   0.879041000440260   0.462076289473686   1.0
H175   H   0.195442535106295   0.247726260885962   0.411421023684213   1.0
H176   H   0.514572583913697   0.221591649119453   0.370755244736841   1.0
H177   H   0.885937811475650   0.362045341655929   0.428815742105265   1.0
H178   H   0.470846542736872   0.365489170011443   0.359855250000003   1.0
H179   H   0.407952487095955   0.099495312912431   0.384039428947368   1.0
H180   H   0.375549523844022   0.285115890833872   0.393544752631577   1.0
H181   H   0.356816904760962   0.220657378556197   0.452055278947370   1.0
H182   H   0.392428197598960   0.056826797663838   0.451210523684210   1.0
H183   H   0.269015816854683   0.049184773298698   0.469900031578945   1.0
H184   H   0.229736687684173   0.805420552088535   0.419836847368423   1.0
H185   H   0.200599659545226   0.989488184327186   0.433821026315790   1.0
H186   H   0.270636263075929   0.479752008611932   0.348910481578947   1.0
H187   H   0.595751973731879   0.714433710347585   0.383597323684214   1.0
H188   H   0.784548395787411   0.762718563913772   0.434257910526313   1.0
H189   H   0.813907033508478   0.508385013025176   0.460002597368422   1.0
H190   H   0.130870747725112   0.051447020866803   0.309518413157896   1.0
H191   H   0.086344658048219   0.703246110736366   0.309713163157895   1.0
H192   H   0.036616052040806   0.774615465410314   0.339605231578950   1.0
H193   H   0.057186972988248   0.512392152235321   0.356228978947371   1.0
H194   H   0.068932933164262   0.638754103022151   0.388105292105266   1.0
H195   H   0.110944314508238   0.336293282440678   0.386110507894735   1.0
H196   H   0.131740598976776   0.475722539110763   0.417489505263155   1.0
H197   H   0.207319956994382   0.285780104440029   0.366186847368418   1.0
H198   H   0.828127007677850   0.841527282055573   0.465107868421050   1.0
H199   H   0.941348149765325   0.461372333246636   0.449742065789472   1.0
H200   H   0.561876309450327   0.090738676122584   0.414415760526318   1.0
H201   H   0.971527492907484   0.572944855751494   0.392297342105266   1.0
H202   H   0.769951243061094   0.037997162432291   0.439521086842106   1.0
H203   H   0.811888751809263   0.193904069159792   0.430631536842107   1.0
H204   H   0.742845013853945   0.199464165307902   0.380202644736841   1.0
H205   H   0.730573830434771   0.356395080204685   0.407244734210529   1.0
H206   H   0.627818444561086   0.212823858439279   0.457084255263155   1.0
H207   H   0.673009367086998   0.046044497336823   0.454505218421055   1.0
H208   H   0.599526545011230   0.917781365381146   0.414163189473683   1.0
H209   H   0.824647918576431   0.156142624109030   0.501052655263159   1.0
H210   H   0.486194602235358   0.907674004853504   0.440228915789476   1.0
H211   H   0.466789010614839   0.869034959106081   0.502076299999999   1.0
H212   H   0.042987655739900   0.122039677595616   0.508476357894736   1.0
H213   H   0.519934730857941   0.724146925481342   0.505334252631577   1.0
H214   H   0.433040430501229   0.527169998929857   0.525307905263155   1.0
H215   H   0.366794677626757   0.417915966162589   0.476234234210530   1.0
H216   H   0.330391783677044   0.577762177088125   0.476092086842108   1.0
H217   H   0.536337318994960   0.745216916942255   0.442289452631577   1.0
H218   H   0.289992708865874   0.253004707234353   0.500292126315792   1.0
H219   H   0.772888829542467   0.031367553393821   0.497757863157894   1.0
H220   H   0.355865045327704   0.744665198930250   0.626389423684209   1.0
H221   H   0.708165235330760   0.174916433613014   0.534452639473685   1.0
H222   H   0.250763037328518   0.422552968148139   0.486328928947366   1.0
H223   H   0.559944109879588   0.374392203018722   0.418250036842103   1.0
H224   H   0.388756295524892   0.696864656061067   0.525728931578946   1.0
H225   H   0.982719429128203   0.369619958706068   0.392473726315792   1.0
H226   H   0.267013814532348   0.636480262611428   0.636416005263158   1.0
H227   H   0.298407316926763   0.163120873820304   0.328055231578951   1.0
H228   H   0.971584770221170   0.434494946668650   0.317492134210525   1.0
H229   H   0.963999011372479   0.618033179931139   0.329921021052634   1.0
H230   H   0.861091822770938   0.587295061615620   0.305836828947371   1.0
H231   H   0.884468860282340   0.423780053656628   0.285928926315790   1.0
H232   H   0.863955532553824   0.515273097433315   0.227386876315791   1.0
H233   H   0.897367632552701   0.668096398065529   0.209010578947371   1.0
H234   H   0.843368336332155   0.859918550263480   0.233168452631581   1.0
H235   H   0.808360520979939   0.736899097383528   0.266715802631580   1.0
H236   H   0.218466817228752   0.015925504348310   0.351855228947372   1.0
H237   H   0.732321672626547   0.890318765354607   0.202510534210525   1.0
H238   H   0.733269150413001   0.832759502630587   0.246757907894740   1.0
H239   H   0.678572466692337   0.663188911425777   0.184631547368419   1.0
H240   H   0.593191877610039   0.535937778354842   0.197776292105260   1.0
H241   H   0.570245845627532   0.663391572323064   0.228639502631580   1.0
H242   H   0.583423504793693   0.438231578714209   0.277807939473682   1.0
H243   H   0.591206150561923   0.314829584538181   0.238128963157898   1.0
H244   H   0.499823620254190   0.296877538748120   0.294834236842107   1.0
H245   H   0.508705862441978   0.178495515550821   0.261786815789470   1.0
H246   H   0.421396827727918   0.236898883534970   0.232818405263160   1.0
H247   H   0.403829226169215   0.374954647223944   0.259497394736840   1.0
H248   H   0.325747361146035   0.083906845139119   0.251039505263158   1.0
H249   H   0.329025501689017   0.259127686539983   0.273005234210530   1.0
H250   H   0.641640279655242   0.806591395427539   0.207655257894736   1.0
H251   H   0.513427911507783   0.521609891526559   0.409992118421051   1.0
H252   H   0.216854506593279   0.423948791420273   0.549617400000002   1.0
H253   H   0.656413965977322   0.646272477902805   0.332723718421050   1.0
H254   H   0.866979192958340   0.205924620140813   0.580524692105264   1.0
H255   H   0.843114172098936   0.480989820313639   0.552666742105266   1.0
H256   H   0.897991459259593   0.541891592199725   0.579025742105266   1.0
H257   H   0.073773922606897   0.577615769615505   0.720646007894736   1.0
H258   H   0.098463722834289   0.412175539408217   0.746366000000002   1.0
H259   H   0.051796029434541   0.264068657361086   0.682453107894737   1.0
H260   H   0.760535633839034   0.298847410323283   0.549712136842103   1.0
H261   H   0.747608064959209   0.012076365453403   0.621077584210525   1.0
H262   H   0.691791447905871   0.867684224113106   0.574647849999998   1.0
H263   H   0.654227294473451   0.037276706656648   0.563389136842105   1.0
H264   H   0.572650065074633   0.818049063251046   0.573354689473682   1.0
H265   H   0.555385765374389   0.984929766057334   0.593227589473685   1.0
H266   H   0.531680691033948   0.873008186437758   0.648900473684208   1.0
H267   H   0.544993881756412   0.696189288564582   0.635810213157896   1.0
H268   H   0.439875286680419   0.749831149684489   0.664062589473687   1.0
H269   H   0.711389848396372   0.184089534832573   0.604898110526314   1.0
H270   H   0.099678197991793   0.188118565381451   0.711727057894734   1.0
H271   H   0.108109081326909   0.033044598768562   0.660936534210528   1.0
H272   H   0.168512843597576   0.136884931605152   0.660923107894739   1.0
H273   H   0.177177546047467   0.099664028165698   0.597722844736843   1.0
H274   H   0.186552153230060   0.297530587208769   0.600499423684212   1.0
H275   H   0.624753778014444   0.576332858379452   0.410626363157896   1.0
H276   H   0.955510530715770   0.058706492680685   0.542040194736842   1.0
H277   H   0.995913671268497   0.222874560355514   0.555601742105260   1.0
H278   H   0.190441595042024   0.522757976877436   0.746769694736841   1.0
H279   H   0.462784694167595   0.585415794295884   0.640106528947371   1.0
H280   H   0.649907146627172   0.610075582632632   0.672789423684208   1.0
H281   H   0.696731032606905   0.453200921160523   0.676237057894738   1.0
H282   H   0.628725232110661   0.325690873767627   0.629579426315786   1.0
H283   H   0.592207463525675   0.507676161347341   0.629475476315790   1.0
H284   H   0.553432904779967   0.172226556469681   0.652562581578948   1.0
H285   H   0.515466850128021   0.329382440044405   0.637449428947370   1.0
H286   H   0.459100582560865   0.349034277942160   0.694145481578950   1.0
H287   H   0.505985819801175   0.260838655048374   0.715209950000002   1.0
H288   H   0.385777707004060   0.202288868336417   0.717973899999997   1.0
H289   H   0.115042848669738   0.340941866013665   0.555434452631580   1.0
H290   H   0.426713902788478   0.039629130783069   0.725903110526318   1.0
H291   H   0.337661407529446   0.048408075353564   0.668403115789474   1.0
H292   H   0.273721586543601   0.799298000480015   0.687929431578951   1.0
H293   H   0.234155430788846   0.974709909935541   0.688230215789474   1.0
H294   H   0.207701513095465   0.858500396700322   0.757000223684209   1.0
H295   H   0.248129068610858   0.717405248545816   0.743648631578949   1.0
H296   H   0.145714240901455   0.636322689993300   0.767181523684208   1.0
H297   H   0.765249543216399   0.601307803207646   0.667323642105266   1.0
H298   H   0.739095173442507   0.759038162782510   0.645827584210529   1.0
H299   H   0.836250207507696   0.707725528848599   0.621750481578950   1.0
H300   H   0.792803057329337   0.654398812964949   0.586836268421052   1.0
H301   H   0.370761745973510   0.880819365008463   0.684128110526316   1.0
H302   H   0.101032270447156   0.162636990820403   0.550332110526313   1.0
H303   H   0.928191147520188   0.295312988967531   0.591423900000002   1.0
H304   H   0.997238639414483   0.192857314257559   0.426571092105263   1.0
H305   H   0.622181476462600   0.371195673632172   0.541989478947372   1.0
H306   H   0.696583295620606   0.542510717526724   0.519118460526315   1.0
H307   H   0.677653473712766   0.794154380016806   0.469599973684211   1.0
H308   H   0.136392845290992   0.561374692333835   0.496013142105262   1.0
H309   H   0.110185268047630   0.706487705891696   0.518328918421055   1.0
H310   H   0.109856923518677   0.861156373220382   0.458731602631580   1.0
H311   H   0.149308204638153   0.707163073388188   0.439052581578949   1.0
H312   H   0.049986840084863   0.072854476599815   0.437331552631576   1.0
H313   H   0.935698968031510   0.945604187667911   0.415834226315788   1.0
H314   H   0.004480090262582   0.841223301964824   0.415236826315791   1.0
H315   H   0.935387210579357   0.818972168668793   0.358034234210528   1.0
H316   H   0.949762753723554   0.939301305453128   0.323399994736839   1.0
H317   H   0.884403127374966   0.126125378011082   0.343078915789477   1.0
H318   H   0.870236676580305   0.036443766542028   0.385610481578951   1.0
H319   H   0.759403166863123   0.991266560150578   0.366415826315787   1.0
H320   H   0.806747902644553   0.886289318363815   0.387252607894737   1.0
H321   H   0.785168152650073   0.647769192671291   0.353078942105263   1.0
H322   H   0.747521991036059   0.752420146586658   0.324481563157896   1.0
H323   H   0.684189093775046   0.495858260008418   0.357034181578946   1.0
H324   H   0.701005788561588   0.622681335807016   0.450557910526314   1.0
H325   H   0.253031721116649   0.250134927181868   0.556623821052632   1.0
H326   H   0.550032065818506   0.268413272098513   0.501271097368424   1.0
H327   H   0.510670932569070   0.439548413083912   0.502907902631577   1.0
H328   H   0.662051249981062   0.720556689653208   0.527997368421055   1.0
H329   H   0.441077552305259   0.268491833303834   0.513702594736841   1.0
H330   H   0.379594846433392   0.599282117160101   0.600699426315792   1.0
H331   H   0.576120702685024   0.526854853693600   0.553652031578949   1.0
H332   H   0.005809124150119   0.539944478612689   0.590792057894738   1.0
H333   H   0.397909293125373   0.300141475449671   0.573421531578944   1.0
H334   H   0.428174714293348   0.138550811834385   0.592604952631582   1.0
H335   H   0.317575023690942   0.136434971738900   0.587641534210526   1.0
H336   H   0.359208914675399   0.990703676993064   0.600054692105260   1.0
H337   H   0.474760399511496   0.094700738308752   0.528505226315787   1.0
H338   H   0.213994862551942   0.694545727371185   0.568679163157896   1.0
H339   H   0.177985734235982   0.878466952137224   0.567645742105263   1.0
H340   H   0.148064936973846   0.855269966690500   0.630139692105260   1.0
H341   H   0.175471021800405   0.691067987137210   0.637624955263156   1.0
H342   H   0.268006364202492   0.972425332076412   0.545528268421052   1.0
H343   H   0.942849963309655   0.711586260586124   0.526778973684209   1.0
H344   H   0.054450339167978   0.619541498797432   0.641233113157895   1.0
H345   H   0.965160270855186   0.699070661459686   0.603868900000002   1.0
H346   H   0.305303836169109   0.808515751026441   0.555583505263158   1.0
H347   H   0.283744435395740   0.435057390873872   0.637405215789471   1.0
H348   H   0.269536662553705   0.522949472629207   0.677024428947369   1.0
H349   H   0.976741898762768   0.669559212210743   0.470176294736845   1.0
H350   H   0.015376544305362   0.812331394484808   0.488973718421050   1.0
H351   H   0.981066112350604   0.535296322736812   0.531157844736839   1.0
H352   H   0.045978449690736   0.821065262031333   0.630442584210527   1.0
O353   O   0.225310120796301   0.791520733787770   0.498973647368423   1.0
O354   O   0.460639020600524   0.817700006136327   0.582786531578947   1.0
O355   O   0.677210570453774   0.551278496951710   0.259831578947370   1.0
O356   O   0.769618828687918   0.221276503883196   0.302444760526313   1.0
O357   O   0.181144930299467   0.613789906897544   0.350194731578945   1.0
O358   O   0.505879084854335   0.910093825039738   0.367921026315791   1.0
O359   O   0.373288979744331   0.548971161104454   0.329005292105265   1.0
O360   O   0.245281945904772   0.506561560177815   0.430944744736841   1.0
O361   O   0.475547930778987   0.257574290649714   0.442302605263159   1.0
O362   O   0.612174906987342   0.970309064283818   0.257223731578947   1.0
O363   O   0.729818853818387   0.350441266359809   0.477131592105266   1.0
O364   O   0.563866106342658   0.469836132580880   0.338757868421055   1.0
O365   O   0.576350451955584   0.000551706756816   0.493178921052632   1.0
O366   O   0.428958171613949   0.645867167363413   0.446968378947368   1.0
O367   O   0.176939661191128   0.168782300417057   0.500139436842105   1.0
O368   O   0.311191214561845   0.002768460859031   0.392481552631580   1.0
O369   O   0.901540035207354   0.341549398498046   0.510736868421056   1.0
O370   O   0.937528814302212   0.997389111759098   0.479684228947370   1.0
O371   O   0.023807743545724   0.083603292745479   0.359300010526319   1.0
O372   O   0.840431061653369   0.897386752671906   0.307518407894740   1.0
O373   O   0.694293950808785   0.810902087031316   0.396523726315792   1.0
O374   O   0.126308649280944   0.898534826767587   0.376542142105265   1.0
O375   O   0.644647664785538   0.178124128145079   0.382226342105263   1.0
O376   O   0.222983843789237   0.069500385850318   0.267478942105264   1.0
O377   O   0.253122180789269   0.930173303767909   0.623937584210523   1.0
O378   O   0.483613845089820   0.483635059385293   0.225905268421052   1.0
O379   O   0.110476364476099   0.601983170704138   0.576152057894738   1.0
O380   O   0.035270426973796   0.855753838435213   0.556819373684213   1.0
O381   O   0.510921338760653   0.356890117094913   0.577729428947372   1.0
O382   O   0.319913510230670   0.492549246282898   0.554386294736844   1.0
O383   O   0.640979828453027   0.966403683219433   0.643131010526318   1.0
O384   O   0.802829971923039   0.983072390076330   0.568527584210528   1.0
O385   O   0.070672319762345   0.288346332098882   0.614300215789477   1.0
O386   O   0.158678746079190   0.445907526212992   0.672513636842105   1.0
O387   O   0.144569568495548   0.779364951734834   0.693179684210527   1.0
O388   O   0.313632366204189   0.003139848264773   0.750509163157894   1.0
O389   O   0.420445280097241   0.092652294273080   0.308955242105263   1.0
O390   O   0.442521460828083   0.084503640175093   0.650112315789471   1.0
O391   O   0.690142205075162   0.515239613251964   0.599149165789477   1.0
O392   O   0.814436334801186   0.362011418522286   0.626668373684211   1.0
O393   O   0.373383505158507   0.047001086935921   0.520163184210524   1.0
O394   O   0.598303934267946   0.524243537755595   0.469860478947368   1.0
O395   O   0.770127780759523   0.753782046725142   0.517628921052633   1.0
O396   O   0.886569461965735   0.702278344736563   0.407823663157892   1.0
O397   O   0.870253263657105   0.407955024362749   0.362465807894736   1.0
O398   O   0.954497320021943   0.706318968128059   0.267839431578949   1.0
O399   O   0.054019641338989   0.507034278032201   0.456273731578946   1.0
O400   O   0.784495184215281   0.620171778014758   0.184744784210530   1.0
O401   O   0.581852204403020   0.403104207589585   0.702473642105261   1.0
O402   O   0.370372050183988   0.503477954082527   0.681545736842104   1.0


# Number_of_total_atoms: 402
# Number_of_atom_type: 3
# Name_of_each_atom: C H O
# Number_of_each_atom: 150 202 50
# Created_by: Lihua Chen (lihua.chen@mse.gatech.edu)
# Tool: VASP
# K-points: 1 2 1
# Pseudopotential: PBE-HSE06
# Material_class: MC_Pol
# Geometry_class: GC_PD
# Bandgap_(eV): 4.58
