#======================================================================

# Note: Disordered slab of polycaprolactone 
# Common_name: Disordered slab-1

#----------------------------------------------------------------------

data_1
_audit_creation_method   'vasp2cif'
_cell_length_a    9.0662689
_cell_length_b    13.3943224
_cell_length_c    48.0
_cell_angle_alpha    90.0
_cell_angle_beta    90.0
_cell_angle_gamma    90.0

_symmetry_space_group_name_H-M    'P 1'
loop_
_atom_site_label
_atom_site_type_symbol
_atom_site_fract_x
_atom_site_fract_y
_atom_site_fract_z
_atom_site_occupancy
C1   C   0.750367540940687   0.298175680764558   0.669645785416670   1.0
C2   C   0.620622867252479   0.610658908732852   0.438995837500002   1.0
C3   C   0.713505629642199   0.540226051300664   0.420356272916663   1.0
C4   C   0.615527077516973   0.471032577205996   0.401066620833333   1.0
C5   C   0.057623958186369   0.948899124602228   0.613927047916668   1.0
C6   C   0.995242287596390   0.867708037250168   0.595893702083330   1.0
C7   C   0.949225562899422   0.911525162332957   0.567462443750003   1.0
C8   C   0.942883483193398   0.827220785726347   0.545543670833332   1.0
C9   C   0.905083931494687   0.873777825446396   0.518239658333336   1.0
C10   C   0.161249805860052   0.426916833060552   0.715124924999998   1.0
C11   C   0.058815220007425   0.501351341222012   0.700458368749999   1.0
C12   C   0.152591359826090   0.596339326579148   0.695624987499997   1.0
C13   C   0.078944768558543   0.660030476793658   0.674312433333334   1.0
C14   C   0.707737049361064   0.670146703352458   0.463145891666670   1.0
C15   C   0.126152766106465   0.771025274111665   0.673749925000003   1.0
C16   C   0.128656486242100   0.214155036315987   0.577404181250003   1.0
C17   C   0.232955234760354   0.232185056259361   0.601912499999997   1.0
C18   C   0.164073503268803   0.277913401576775   0.628291606250002   1.0
C19   C   0.282997882403421   0.296996121281957   0.653083324999997   1.0
C20   C   0.141407111805386   0.120121201502513   0.369168758333331   1.0
C21   C   0.225642369817642   0.116749601308683   0.398297945833335   1.0
C22   C   0.114074931088794   0.125097929552602   0.421356202083331   1.0
C23   C   0.181401447292174   0.147044511934396   0.450312456250003   1.0
C24   C   0.077720472199978   0.145521478563182   0.476389566666668   1.0
C25   C   0.330183698831171   0.862325181899458   0.231497922916667   1.0
C26   C   0.431217587203925   0.913839583255069   0.251987458333332   1.0
C27   C   0.375097511171326   0.020799267904735   0.257545789583332   1.0
C28   C   0.213090348555625   0.185949055549088   0.550237497916669   1.0
C29   C   0.861935078938593   0.720130598021143   0.454781214583335   1.0
C30   C   0.818741831052463   0.956469526222541   0.289068700000001   1.0
C31   C   0.723377441408118   0.037632489718178   0.301885445833335   1.0
C32   C   0.522467914005951   0.700577537240704   0.295579116666666   1.0
C33   C   0.545244648545555   0.600818941016385   0.280641714583332   1.0
C34   C   0.698516155857675   0.553186781587399   0.285281181249999   1.0
C35   C   0.724370220256759   0.456242721169680   0.269389629166667   1.0
C36   C   0.668933986725236   0.367048190507944   0.285350006249999   1.0
C37   C   0.588470820670231   0.095226295284633   0.430460454166664   1.0
C38   C   0.692074575462904   0.040090240025876   0.408922991666664   1.0
C39   C   0.626512831535365   0.929973195209932   0.405522983333334   1.0
C40   C   0.647988082506572   0.894286537406330   0.376262506250001   1.0
C41   C   0.731120417132125   0.192369723756983   0.578350066666665   1.0
C42   C   0.651782454853063   0.261772249113548   0.560045879166665   1.0
C43   C   0.614600566281460   0.217574410483060   0.531793754166664   1.0
C44   C   0.573878224591375   0.300228804407453   0.508854231249998   1.0
C45   C   0.655378244958079   0.304051312069362   0.480839570833332   1.0
C46   C   0.367442675343547   0.869813421842082   0.493812562499997   1.0
C47   C   0.415279399003929   0.826436878957011   0.523645877083332   1.0
C48   C   0.459796024801335   0.910688987148767   0.542204220833334   1.0
C49   C   0.518397816327727   0.876256442804454   0.568760395833337   1.0
C50   C   0.526548942310768   0.957402817181702   0.590968768750002   1.0
C51   C   0.003919462393178   0.761513826186537   0.328756175000002   1.0
C52   C   0.076540251304479   0.830826776276488   0.350743770833333   1.0
C53   C   0.154267970145909   0.774601505784268   0.374406179166670   1.0
C54   C   0.200461106994076   0.836777095943276   0.399600029166663   1.0
C55   C   0.239065785926556   0.770659447468582   0.425668716666664   1.0
C56   C   0.752529389460314   0.257882526405368   0.356933275000003   1.0
C57   C   0.686912518114262   0.173451200487754   0.336239656250001   1.0
C58   C   0.808031879575069   0.116939204031702   0.319212437499999   1.0
C59   C   0.281122778081290   0.024847983351513   0.284479141666665   1.0
C60   C   0.288049486376913   0.123669660213643   0.298466683333331   1.0
C61   C   0.591901140280541   0.791533978605742   0.369868756250000   1.0
C62   C   0.456729757927214   0.440997403496873   0.177299977083337   1.0
C63   C   0.756985621725825   0.558494948576119   0.594933352083331   1.0
C64   C   0.888351679046274   0.483634886972709   0.597708385416666   1.0
C65   C   0.746893134837421   0.199902743867057   0.685520808333337   1.0
C66   C   0.863390892807075   0.119076699243855   0.676624935416669   1.0
C67   C   0.818797157009101   0.013797756577816   0.688166618750003   1.0
C68   C   0.701229410921179   0.949690586811620   0.673562527083334   1.0
C69   C   0.646664583266443   0.857367820263903   0.686625004166665   1.0
C70   C   0.544064427650056   0.694224084079089   0.327493827083330   1.0
C71   C   0.663010778336833   0.190570431543442   0.442062537500000   1.0
C72   C   0.632050004605532   0.121574742743242   0.594687462499998   1.0
C73   C   0.317422131611387   0.789010513887582   0.473975022916669   1.0
C74   C   0.941603960147269   0.809974605359656   0.303795814583331   1.0
C75   C   0.675165822624123   0.577936006676978   0.622420787499998   1.0
C76   C   0.645274816413178   0.317131510885538   0.373141608333334   1.0
C77   C   0.122181981608776   0.911047265817643   0.642270883333332   1.0
C78   C   0.272728983363820   0.373356856036253   0.695979118750003   1.0
C79   C   0.102978944293170   0.161416280378617   0.525764625000001   1.0
C80   C   0.243621110774690   0.091064808175737   0.345424970833335   1.0
C81   C   0.388300241127858   0.847856364872925   0.202199935416665   1.0
C82   C   0.515860973415428   0.271447953201424   0.203064602083330   1.0
C83   C   0.849272604301426   0.710327937156421   0.218529224999997   1.0
C84   C   0.066712625300582   0.282198784464079   0.249210358333336   1.0
C85   C   0.138274577318128   0.461013399229515   0.413629216666664   1.0
C86   C   0.107534269141297   0.557106337831620   0.578025022916670   1.0
C87   C   0.520692100804553   0.720391902766202   0.665791670833336   1.0
C88   C   0.496150605019004   0.383719433242852   0.202783266666664   1.0
C89   C   0.897693956551407   0.810079127257680   0.472704093750004   1.0
C90   C   0.561182825715662   0.657312922376725   0.615185420833335   1.0
C91   C   0.896679095851660   0.184530544075898   0.136514506250002   1.0
C92   C   0.184335388508053   0.465171825339965   0.464064597916668   1.0
C93   C   0.490006920046241   0.551282967475828   0.182991664583334   1.0
C94   C   0.449979450752892   0.675791005299381   0.639333408333336   1.0
C95   C   0.402617023635820   0.613533245996827   0.161608379166665   1.0
C96   C   0.418467049879801   0.721862749846906   0.166795889583334   1.0
C97   C   0.997613682073776   0.116814531804906   0.117725054166669   1.0
C98   C   0.222917963529625   0.104605672325761   0.148622989583330   1.0
C99   C   0.396032175926308   0.103599260833086   0.148460387500002   1.0
C100   C   0.462145425666783   0.124811203588770   0.177543800000002   1.0
C101   C   0.970381013075844   0.640357954949629   0.229754129166665   1.0
C102   C   0.029486661265914   0.566490911104246   0.206558387500003   1.0
C103   C   0.931235880285882   0.483097323385316   0.195912520833332   1.0
C104   C   0.990091392502158   0.413724706223284   0.173056285416664   1.0
C105   C   0.878446854802640   0.333660924870678   0.163879237499998   1.0
C106   C   0.163058752868004   0.143005487160742   0.121095816666667   1.0
C107   C   0.978024708709000   0.121796530744994   0.222979229166668   1.0
C108   C   0.984841184227392   0.181506897280599   0.250766595833333   1.0
C109   C   0.184655266512117   0.481410101044006   0.529083410416668   1.0
C110   C   0.209935820456416   0.556994342617884   0.552112579166668   1.0
C111   C   0.122314307267018   0.459079676923409   0.306054116666665   1.0
C112   C   0.136730391925610   0.391244980037214   0.331912516666669   1.0
C113   C   0.153925999260842   0.407423514010681   0.278477033333331   1.0
C114   C   0.150197883497590   0.394373215923189   0.386704127083334   1.0
C115   C   0.910521791384326   0.013976966837831   0.222795804166665   1.0
C116   C   0.174607053624897   0.447044756814279   0.359635354166670   1.0
C117   C   0.893822363905400   0.970878676177001   0.192979177083331   1.0
C118   C   0.802395624952176   0.871403737452219   0.196981270833334   1.0
C119   C   0.056179074944488   0.498656214218045   0.509652137499998   1.0
C120   C   0.054976761167978   0.442065049890097   0.482387543750001   1.0
H121   H   0.366240471865993   0.962001765763084   0.547345797916670   1.0
H122   H   0.526383471816061   0.963995073016910   0.532010395833332   1.0
H123   H   0.514327839978364   0.780581584328594   0.521443685416664   1.0
H124   H   0.277394662318038   0.919871922748399   0.498229187500002   1.0
H125   H   0.627670970579750   0.844160806522027   0.563533306250001   1.0
H126   H   0.451876537657071   0.908725438772478   0.482337475000001   1.0
H127   H   0.456928251929526   0.295361085231157   0.506895860416670   1.0
H128   H   0.578014479583771   0.375185981785833   0.518252054166666   1.0
H129   H   0.537799468974498   0.152703618661590   0.530660470833332   1.0
H130   H   0.331209490157519   0.782171765553443   0.531597933333330   1.0
H131   H   0.797730056296921   0.229497335378461   0.594493708333331   1.0
H132   H   0.544229898144756   0.290709875700770   0.566716670833337   1.0
H133   H   0.729476940618866   0.321588630717144   0.554591656249997   1.0
H134   H   0.809201158814076   0.144692784160547   0.566610495833331   1.0
H135   H   0.581532950120199   0.941627483895715   0.362206299999997   1.0
H136   H   0.765511642832479   0.901752409662770   0.370433331249998   1.0
H137   H   0.506794388152329   0.928644326196000   0.410097916666665   1.0
H138   H   0.677912310763254   0.870948201157233   0.417681216666665   1.0
H139   H   0.452725839622957   0.814640761521467   0.575874964583335   1.0
H140   H   0.685335309214139   0.082316332776941   0.390195847916665   1.0
H141   H   0.805483984707315   0.036414048089512   0.415527025000003   1.0
H142   H   0.719913976961351   0.183209073719176   0.524468739583334   1.0
H143   H   0.917282940946080   0.718950956414190   0.339502016666664   1.0
H144   H   0.668250044955094   0.074780318861073   0.284514587499999   1.0
H145   H   0.991448113788024   0.884103103267101   0.358093739583332   1.0
H146   H   0.954166934095682   0.998338049560459   0.617812475000001   1.0
H147   H   0.492576896765108   0.117759708397045   0.418945789583333   1.0
H148   H   0.813304180730839   0.568641075863603   0.408395768749998   1.0
H149   H   0.766250689961339   0.481626550963114   0.434839566666668   1.0
H150   H   0.554653094394766   0.662247938723652   0.426889579166669   1.0
H151   H   0.534567731605669   0.563818136854763   0.449510416666669   1.0
H152   H   0.734539706846775   0.607075278403038   0.476877054166664   1.0
H153   H   0.628343970693393   0.724752041208149   0.471866608333336   1.0
H154   H   0.957751782544193   0.673185371437675   0.456500054166668   1.0
H155   H   0.847243081440041   0.736876529118035   0.431920845833332   1.0
H156   H   0.092302016323387   0.714770095424910   0.320658366666670   1.0
H157   H   0.631299795222269   0.006951602120608   0.312545777083336   1.0
H158   H   0.865629961626219   0.167747306127261   0.306058408333335   1.0
H159   H   0.612460810642844   0.123905618398432   0.348716735416666   1.0
H160   H   0.617148461149213   0.206987842848996   0.319533347916668   1.0
H161   H   0.830543863529130   0.223114056146656   0.370945772916670   1.0
H162   H   0.814605785628089   0.303267397834176   0.342656295833336   1.0
H163   H   0.296641775096702   0.876084705860151   0.390162468749999   1.0
H164   H   0.114317610853128   0.895660268712064   0.405522983333334   1.0
H165   H   0.248253644892444   0.733225683741942   0.366093795833336   1.0
H166   H   0.072481205581717   0.719578087802333   0.381866614583330   1.0
H167   H   0.155734946268801   0.879108419848102   0.340322970833334   1.0
H168   H   0.889609109211399   0.077368721541298   0.332227070833334   1.0
H169   H   0.569400097982978   0.055266073034048   0.450760364583331   1.0
H170   H   0.014585338407514   0.074324147968845   0.477385362500002   1.0
H171   H   0.673577462499487   0.304551561339153   0.270868779166669   1.0
H172   H   0.397212407851704   0.142930873457246   0.305370808333336   1.0
H173   H   0.999885972938657   0.200059526714092   0.473499935416669   1.0
H174   H   0.383171317585784   0.323649220209902   0.642541729166666   1.0
H175   H   0.298991175962143   0.218701723948349   0.660208385416666   1.0
H176   H   0.249963289749765   0.775161422126139   0.677979152083331   1.0
H177   H   0.067065537842140   0.806159578479310   0.691374937500001   1.0
H178   H   0.992892997029905   0.924291728262418   0.511495908333330   1.0
H179   H   0.818157401000981   0.923500415370022   0.520760379166667   1.0
H180   H   0.554597966976253   0.505226109832925   0.383214633333331   1.0
H181   H   0.541637806485092   0.422123727587746   0.414385479166668   1.0
H182   H   0.263507990591364   0.188151488723314   0.284066677083331   1.0
H183   H   0.910279012350934   0.984548624871088   0.278058370833335   1.0
H184   H   0.315734579635070   0.718928596193862   0.418235460416668   1.0
H185   H   0.136653182655991   0.738907285074760   0.432558377083332   1.0
H186   H   0.583915484792207   0.920207990513951   0.609393756250000   1.0
H187   H   0.417970671485378   0.981330821184358   0.596000035416665   1.0
H188   H   0.775979024844496   0.298220535590509   0.481641610416666   1.0
H189   H   0.616961019102355   0.371303739859208   0.471468766666668   1.0
H190   H   0.485771473202171   0.772242222570362   0.378735383333336   1.0
H191   H   0.661168918120218   0.737294616710138   0.379649956249999   1.0
H192   H   0.517592700123863   0.437346632779274   0.309306304166668   1.0
H193   H   0.133686107633537   0.997262937317380   0.602922916666664   1.0
H194   H   0.761618155843578   0.922559725753651   0.273220856249999   1.0
H195   H   0.763437934209080   0.351832773563821   0.298987547916667   1.0
H196   H   0.537854574333217   0.726051009493396   0.164297900000001   1.0
H197   H   0.399925762184267   0.098370911245198   0.195241610416666   1.0
H198   H   0.670731672209719   0.455354285036471   0.249049983333336   1.0
H199   H   0.835253606916510   0.450262567966860   0.262570858333333   1.0
H200   H   0.714244698830846   0.537732420118544   0.307406266666668   1.0
H201   H   0.780843186771129   0.614332114329279   0.280033270833336   1.0
H202   H   0.449163183324508   0.557666254173483   0.287697952083334   1.0
H203   H   0.535604475618413   0.604984847908398   0.257610481249998   1.0
H204   H   0.597923441251559   0.756646032351739   0.285529137499999   1.0
H205   H   0.414705800309981   0.729373342544001   0.291600070833333   1.0
H206   H   0.676467228983249   0.355715022956296   0.677062512500001   1.0
H207   H   0.573657637708052   0.876779044828723   0.701749960416670   1.0
H208   H   0.369968587629252   0.766538402868370   0.149641672916665   1.0
H209   H   0.734363195426511   0.808750258243748   0.695145766666670   1.0
H210   H   0.932140298640384   0.498253006064722   0.617864608333335   1.0
H211   H   0.281056609737220   0.430754294819721   0.472416718749997   1.0
H212   H   0.208270262092050   0.538822486458891   0.460487524999998   1.0
H213   H   0.261732188419870   0.375432332433626   0.278858343750002   1.0
H214   H   0.153572987450218   0.468882404980782   0.261277039583334   1.0
H215   H   0.750499866598929   0.855060939850155   0.177054087499997   1.0
H216   H   0.703634038474192   0.871269314825511   0.210499922916668   1.0
H217   H   0.782828523870499   0.375760852224971   0.154406229166668   1.0
H218   H   0.829231305945491   0.289134581380537   0.181206227083337   1.0
H219   H   0.576823206732819   0.090089014133334   0.177345912500002   1.0
H220   H   0.850408849002925   0.404071354889886   0.600070795833332   1.0
H221   H   0.893932806250653   0.838859978463709   0.605295816666668   1.0
H222   H   0.519787682450051   0.414538446528660   0.159308275000001   1.0
H223   H   0.842081233659414   0.947906174036845   0.567293804166667   1.0
H224   H   0.034979648574065   0.352362856369652   0.334333260416663   1.0
H225   H   0.200405990605461   0.325769484240574   0.326987424999999   1.0
H226   H   0.117108174455318   0.516081455527754   0.359158356249999   1.0
H227   H   0.295593979128505   0.467777459201670   0.357497852083334   1.0
H228   H   0.082617767933179   0.813222324706771   0.595647970833333   1.0
H229   H   0.233098612374050   0.339275251430415   0.392818770833337   1.0
H230   H   0.836797781279131   0.021563741066885   0.180197874999998   1.0
H231   H   0.999874832744041   0.955499070262782   0.184150062500002   1.0
H232   H   0.801380973820443   0.027117616640318   0.234145800000000   1.0
H233   H   0.958987119828315   0.960575773508332   0.236927033333330   1.0
H234   H   0.925842195128361   0.165283575673826   0.206020833333333   1.0
H235   H   0.083301599404358   0.105242486921178   0.215585391666664   1.0
H236   H   0.867041810330598   0.198372229714288   0.255266666666664   1.0
H237   H   0.024082034451901   0.138958981605519   0.268643699999998   1.0
H238   H   0.009544665060616   0.455675256853603   0.153712431250000   1.0
H239   H   0.101589177439905   0.385765076104185   0.178783258333333   1.0
H240   H   0.839610548061287   0.522405075153337   0.187710443750000   1.0
H241   H   0.882693331542370   0.441318435040806   0.213893731250003   1.0
H242   H   0.057293138525814   0.608441461734564   0.187052091666665   1.0
H243   H   0.130311003680909   0.533125998221458   0.213643710416669   1.0
H244   H   0.949435097827291   0.593076809917612   0.248864650000002   1.0
H245   H   0.192188707308254   0.520202649444961   0.311112562500000   1.0
H246   H   0.013989757131512   0.496394046779102   0.305560431250001   1.0
H247   H   0.225201207080900   0.632309798665140   0.542943795833331   1.0
H248   H   0.326698251802348   0.544466646554660   0.559127012499999   1.0
H249   H   0.599952964112944   0.999689428111722   0.669083277083331   1.0
H250   H   0.748238925496686   0.944509227282751   0.653000037500000   1.0
H251   H   0.785486872113403   0.015738168285395   0.710229237500002   1.0
H252   H   0.923073614108226   0.972259806139952   0.690999985416667   1.0
H253   H   0.870802960631359   0.114875687925803   0.652916591666667   1.0
H254   H   0.970513349763984   0.139638373942681   0.686708291666669   1.0
H255   H   0.629601191290497   0.176758579441092   0.683479150000004   1.0
H256   H   0.768577909706607   0.213998253468951   0.707729183333335   1.0
H257   H   0.680140228357885   0.536649894286555   0.577808381250001   1.0
H258   H   0.796715195597166   0.633011693073776   0.587745824999999   1.0
H259   H   0.069006799478451   0.686250556429790   0.232254187499997   1.0
H260   H   0.625674691823889   0.513991032498964   0.631458283333330   1.0
H261   H   0.506231940682895   0.642956175222423   0.595300039583336   1.0
H262   H   0.630053505251759   0.720653200045419   0.611970902083335   1.0
H263   H   0.368247901846374   0.724617611115590   0.630874952083332   1.0
H264   H   0.400984599078015   0.600886014211511   0.643562475000003   1.0
H265   H   0.040902647394454   0.361866905637569   0.485645770833337   1.0
H266   H   0.947262307651165   0.453308642175138   0.474110445833333   1.0
H267   H   0.070010519983583   0.577092432835570   0.504156270833334   1.0
H268   H   0.939541413778272   0.484411320426332   0.518979233333333   1.0
H269   H   0.279214539952591   0.473660489163677   0.515441735416665   1.0
H270   H   0.172147419982217   0.399994948605986   0.538131237500004   1.0
H271   H   0.744455472746900   0.607463457800598   0.638187568749998   1.0
H272   H   0.428404919690834   0.025425056216356   0.144231320833335   1.0
H273   H   0.044101339195883   0.357685977455645   0.385495822916667   1.0
H274   H   0.173890088347150   0.030692213291808   0.153697968750002   1.0
H275   H   0.300270699008280   0.180984287790473   0.399079164583334   1.0
H276   H   0.042171118485136   0.069317578916873   0.370147864583330   1.0
H277   H   0.089555528184256   0.194773712479851   0.365658283333332   1.0
H278   H   0.116733180062639   0.352310595420640   0.622993787500000   1.0
H279   H   0.066326578952449   0.232192537040916   0.634812514583331   1.0
H280   H   0.326786490967635   0.279720174571878   0.595035393750003   1.0
H281   H   0.279832214109597   0.158624037599694   0.606043816666670   1.0
H282   H   0.059829981438121   0.276158896996535   0.576212564583336   1.0
H283   H   0.048083076379967   0.154540225192726   0.585370858333334   1.0
H284   H   0.289483427962303   0.249334120851088   0.546147983333334   1.0
H285   H   0.284189044955419   0.044832577719646   0.397245883333333   1.0
H286   H   0.283185324450280   0.124390913570963   0.554181258333337   1.0
H287   H   0.959373166176441   0.663285602263834   0.675645829166669   1.0
H288   H   0.273589326255255   0.584177531817510   0.695562522916667   1.0
H289   H   0.159606439645749   0.634915432526846   0.717374960416670   1.0
H290   H   0.002981910232116   0.472421187950502   0.681833268749998   1.0
H291   H   0.977098197473495   0.520837261614666   0.717458408333336   1.0
H292   H   0.440295191332787   0.154383442345690   0.132883389583334   1.0
H293   H   0.096184462386724   0.360687264030617   0.722937424999998   1.0
H294   H   0.045689600051460   0.786151123255031   0.543427149999999   1.0
H295   H   0.855515580394929   0.779708102292652   0.550506275000004   1.0
H296   H   0.039556956004248   0.956559094023298   0.558599950000001   1.0
H297   H   0.113909581922947   0.626367026972559   0.655250072916665   1.0
H298   H   0.039005549460377   0.183373329881924   0.415633362500003   1.0
H299   H   0.220723091502393   0.464261036452278   0.730854193749998   1.0
H300   H   0.242529140074367   0.217932771276281   0.451116720833333   1.0
H301   H   0.068179590393577   0.059072200621365   0.426910399999997   1.0
H302   H   0.178974936426165   0.148455557557732   0.165608408333334   1.0
H303   H   0.217568464134125   0.091697202988037   0.108456293750002   1.0
H304   H   0.959461317102566   0.132172561413036   0.097677072916667   1.0
H305   H   0.973204511946477   0.035472641751554   0.119641622916667   1.0
H306   H   0.464682279608979   0.602095556547155   0.143156212500003   1.0
H307   H   0.291126904475554   0.592203335347520   0.157824993749998   1.0
H308   H   0.614148472918117   0.568648556645165   0.183060487500001   1.0
H309   H   0.455340002103846   0.577965914871513   0.203137556249999   1.0
H310   H   0.340265023465165   0.433023868381724   0.170445760416669   1.0
H311   H   0.192276968533328   0.218604682831881   0.115087510416664   1.0
H312   H   0.415908114086491   0.393387664015016   0.218943756249999   1.0
H313   H   0.597592511292049   0.411462546250192   0.210206191666664   1.0
H314   H   0.221031928580899   0.893875855937289   0.231972854166663   1.0
H315   H   0.549436030956464   0.914489074863539   0.247749966666667   1.0
H316   H   0.431471296863918   0.866252286117884   0.270920912500003   1.0
H317   H   0.305123820009357   0.787039559388241   0.239514510416669   1.0
H318   H   0.310572621555487   0.053479525026212   0.240612508333335   1.0
H319   H   0.325076857140203   0.967832609434573   0.298868814583336   1.0
H320   H   0.173228338727078   0.994567735654925   0.278679212500002   1.0
H321   H   0.460215204956029   0.075240200280682   0.259266695833333   1.0
H322   H   0.265361002032492   0.092045089193910   0.454891681249997   1.0
O323   O   0.001845753769778   0.491675629668286   0.576166631249997   1.0
O324   O   0.362975600690596   0.755272442897152   0.193377018749999   1.0
O325   O   0.166544199896826   0.415232792963082   0.438466708333337   1.0
O326   O   0.047586797254603   0.332212505202953   0.273139635416669   1.0
O327   O   0.902491850864912   0.796767599083623   0.207599958333333   1.0
O328   O   0.577176218543443   0.810818335983910   0.663395883333337   1.0
O329   O   0.955865526997549   0.273239772099259   0.145775000000000   1.0
O330   O   0.463744727447917   0.230109579861988   0.179870764583335   1.0
O331   O   0.866578554712845   0.797088563434905   0.500220775000003   1.0
O332   O   0.169555339352442   0.158019333624523   0.498991650000001   1.0
O333   O   0.217921486974646   0.363091260219328   0.671500047916666   1.0
O334   O   0.073992356436726   0.819919236825299   0.649437427083335   1.0
O335   O   0.704858235563698   0.405303182787357   0.384787560416669   1.0
O336   O   0.868166903807584   0.892920212223650   0.310097854166664   1.0
O337   O   0.279898481722732   0.829632188038119   0.449033260416670   1.0
O338   O   0.527188698318888   0.385981593215945   0.295812447916667   1.0
O339   O   0.608092927841575   0.043141510465659   0.579993725000001   1.0
O340   O   0.201189124227277   0.134188303545685   0.321972847916669   1.0
O341   O   0.837228002359382   0.305365301644521   0.650458335416666   1.0
O342   O   0.352772980294020   0.039464609273551   0.349987508333335   1.0
O343   O   0.775173897610735   0.229198723781650   0.431708335416665   1.0
O344   O   0.598177051642487   0.220478581283068   0.465779145833331   1.0
O345   O   0.533619127489146   0.669661408179934   0.686416625000000   1.0
O346   O   0.135693548643808   0.612637269355261   0.597587427083333   1.0
O347   O   0.100618502502172   0.549715146471314   0.412691593749997   1.0
O348   O   0.154058335948982   0.301445752866158   0.230441729166664   1.0
O349   O   0.717796303173841   0.689580429988752   0.222599983333332   1.0
O350   O   0.769482317031212   0.156750124216813   0.140414556250000   1.0
O351   O   0.578389473976443   0.223397788304695   0.222372849999999   1.0
O352   O   0.453376636556634   0.912047771823083   0.187997977083334   1.0
O353   O   0.972410535937229   0.146581644174852   0.529739539583332   1.0
O354   O   0.376266591872209   0.326717654638507   0.705833279166669   1.0
O355   O   0.204078879681141   0.965884007689709   0.657187462499998   1.0
O356   O   0.955071352450176   0.884663012143115   0.462662537500002   1.0
O357   O   0.520813385537238   0.287887799385807   0.378672918749999   1.0
O358   O   0.968825687488710   0.780783222001588   0.279168764583332   1.0
O359   O   0.312899929539924   0.697964504721789   0.480812550000003   1.0
O360   O   0.570966376256500   0.142998006379180   0.615414620833334   1.0
O361   O   0.522732664591494   0.615116021098608   0.339856306249999   1.0
O362   O   0.581676427002954   0.783276785991056   0.339714527083331   1.0


# Number_of_total_atoms: 362
# Number_of_atom_type: 3
# Name_of_each_atom: C H O
# Number_of_each_atom: 120 202 40
# Created_by: Lihua Chen (lihua.chen@mse.gatech.edu)
# Tool: VASP
# K-points: 2 1 1
# Pseudopotential: PBE-HSE06
# Material_class: MC_Pol
# Geometry_class: GC_PD
# Bandgap_(eV): 5.48
