#======================================================================

# Note: Disordered slab of polycaprolactone
# Common_name: Disordered slab-2

#----------------------------------------------------------------------

data_1
_audit_creation_method   'vasp2cif'
_cell_length_a    9.2331648
_cell_length_b    13.8721428
_cell_length_c    48.0
_cell_angle_alpha    90.0
_cell_angle_beta    90.0
_cell_angle_gamma    90.0

_symmetry_space_group_name_H-M    'P 1'
loop_
_atom_site_label
_atom_site_type_symbol
_atom_site_fract_x
_atom_site_fract_y
_atom_site_fract_z
_atom_site_occupancy
C1   C   0.095804810069026   0.677896099800819   0.786708356250003   1.0
C2   C   0.782167648518524   0.529815148673357   0.424816608333330   1.0
C3   C   0.856714048903363   0.462125519642143   0.403297902083331   1.0
C4   C   0.755286139807666   0.390355807179262   0.388914585416664   1.0
C5   C   0.993997940987690   0.971628622508128   0.603297870833330   1.0
C6   C   0.974593456839415   0.873626531583859   0.590093772916667   1.0
C7   C   0.045096324935088   0.879768286410659   0.560141725000001   1.0
C8   C   0.961390984811622   0.813368984350419   0.540585358333331   1.0
C9   C   0.016991172950796   0.814854068543760   0.510335445833334   1.0
C10   C   0.710686015265317   0.570493766831753   0.670833270833334   1.0
C11   C   0.643688521621534   0.671055044214221   0.668229104166670   1.0
C12   C   0.740080096913246   0.756989900651831   0.672437508333331   1.0
C13   C   0.655851079361220   0.851156982034524   0.671000004166665   1.0
C14   C   0.867836919795906   0.618964973457452   0.431987445833336   1.0
C15   C   0.767773862327246   0.933775869146906   0.668625037500000   1.0
C16   C   0.946455759134722   0.251811976733691   0.568420887499997   1.0
C17   C   0.009637172294383   0.287855442203203   0.597204208333331   1.0
C18   C   0.903198565241681   0.347947095815648   0.615218797916668   1.0
C19   C   0.974041056864920   0.399489183459096   0.639395872916666   1.0
C20   C   0.256822189505378   0.108914781355914   0.373795829166667   1.0
C21   C   0.311559737350294   0.132329339919998   0.403012435416670   1.0
C22   C   0.179838824061712   0.142686766459754   0.423850060416669   1.0
C23   C   0.218330501368285   0.183567285653950   0.451893806249998   1.0
C24   C   0.104079415976635   0.149008774621322   0.473597845833332   1.0
C25   C   0.487544877353429   0.841850640407188   0.215243816666664   1.0
C26   C   0.401344704688903   0.911983893360727   0.232820829166670   1.0
C27   C   0.474114964351116   0.954659412819773   0.257181327083330   1.0
C28   C   0.075389329127972   0.219235863114093   0.548483372916664   1.0
C29   C   0.805940602294889   0.673412257549714   0.456762474999998   1.0
C30   C   0.962896514096663   0.914110522276346   0.297524929166670   1.0
C31   C   0.892638827371520   0.998464664017156   0.312310379166668   1.0
C32   C   0.609182509121901   0.780454083849250   0.335231304166669   1.0
C33   C   0.553340302124795   0.676605715160314   0.325697900000001   1.0
C34   C   0.683295710263941   0.623138906845739   0.314227104166669   1.0
C35   C   0.637612511800938   0.533650151006228   0.296041647916667   1.0
C36   C   0.773037409664781   0.469442384921237   0.288002014583334   1.0
C37   C   0.680945497691106   0.159446974551038   0.465193747916665   1.0
C38   C   0.712927976764803   0.141619865677853   0.433385372916668   1.0
C39   C   0.728415591585673   0.034193808904561   0.427877108333334   1.0
C40   C   0.746924998024511   0.009640039172609   0.398308277083331   1.0
C41   C   0.485064622695788   0.256699440839093   0.609145800000000   1.0
C42   C   0.438515025747186   0.306864718837815   0.581993741666665   1.0
C43   C   0.563900050825474   0.316293709144922   0.559872945833334   1.0
C44   C   0.505371852563492   0.372045752008837   0.534835339583331   1.0
C45   C   0.610828705234418   0.370690460308701   0.510866641666667   1.0
C46   C   0.384167517512523   0.950845993309699   0.488972981250001   1.0
C47   C   0.490577402019298   0.936306047829902   0.511389572916670   1.0
C48   C   0.442782262480577   0.972601810298549   0.541531245833333   1.0
C49   C   0.575023019192727   0.979500477748829   0.560529233333334   1.0
C50   C   0.547123506340967   0.003385331356306   0.592210452083336   1.0
C51   C   0.109462153215333   0.699392468768416   0.330537479166665   1.0
C52   C   0.114195113250872   0.741260485005967   0.360497952083335   1.0
C53   C   0.259226630504848   0.774989902785606   0.371329150000001   1.0
C54   C   0.247063964459940   0.812078736675055   0.401462554166670   1.0
C55   C   0.383885956416592   0.862135805003390   0.413406212500000   1.0
C56   C   0.869710762662876   0.218514979531499   0.335604191666668   1.0
C57   C   0.811150040341531   0.173280468248926   0.308579127083334   1.0
C58   C   0.895032416187348   0.091109334601143   0.294770877083330   1.0
C59   C   0.372936298071927   0.985865802938534   0.281314533333337   1.0
C60   C   0.440042140263756   0.036159640744181   0.305433272916666   1.0
C61   C   0.756369235389364   0.898856981201206   0.396568774999999   1.0
C62   C   0.580048392507841   0.359207028924182   0.218783379166666   1.0
C63   C   0.627237022781181   0.625597041864360   0.556070804166666   1.0
C64   C   0.770546313654016   0.575547117349458   0.562047958333331   1.0
C65   C   0.979023053937041   0.652507123845353   0.764333408333336   1.0
C66   C   0.023857648463071   0.620954658857748   0.734645843750002   1.0
C67   C   0.090118807367112   0.695052713846053   0.714249929166670   1.0
C68   C   0.117195113857385   0.655635681605006   0.686124962500003   1.0
C69   C   0.200980101644021   0.727549632779159   0.666437466666665   1.0
C70   C   0.673862422557434   0.775299955822256   0.363470872916665   1.0
C71   C   0.703992752300920   0.260411938666032   0.476158300000002   1.0
C72   C   0.488736202347432   0.147480582451905   0.612958272916664   1.0
C73   C   0.414081453414546   0.883841161150677   0.463189602083332   1.0
C74   C   0.086707214410381   0.777073221881771   0.308406193750002   1.0
C75   C   0.513722261298746   0.608743055903375   0.577918689583335   1.0
C76   C   0.767037213502348   0.288496986925480   0.350037575000002   1.0
C77   C   0.953181448683772   0.975542963701322   0.633437475000001   1.0
C78   C   0.824374195075563   0.540462407869676   0.648333391666668   1.0
C79   C   0.031287462777662   0.172328935368228   0.519970895833332   1.0
C80   C   0.382499617032721   0.102388731177136   0.352512520833336   1.0
C81   C   0.536845437871960   0.747604083199029   0.228997866666667   1.0
C82   C   0.665360386505824   0.183689797368579   0.211583295833336   1.0
C83   C   0.998041451615812   0.746140726002331   0.210002104166669   1.0
C84   C   0.140210039357250   0.239276018698426   0.244518758333335   1.0
C85   C   0.370542698425574   0.476232914788042   0.408331235416668   1.0
C86   C   0.965517543887010   0.509356867347130   0.537229220833332   1.0
C87   C   0.282143951335080   0.701908208442028   0.620152156250001   1.0
C88   C   0.624550923211075   0.266135647046539   0.232585431250001   1.0
C89   C   0.916390293391061   0.743999795042477   0.467389583333336   1.0
C90   C   0.365625684489025   0.651425726384538   0.570299943750001   1.0
C91   C   0.081161986841174   0.261269772972639   0.127939541666663   1.0
C92   C   0.434637709488300   0.567329180031223   0.449493727083336   1.0
C93   C   0.701447741948677   0.413192949542015   0.203033289583331   1.0
C94   C   0.251515255094333   0.636438921317911   0.593864600000003   1.0
C95   C   0.656999223061632   0.516543932924336   0.195270856249998   1.0
C96   C   0.621962525785307   0.586835856389825   0.220877012499997   1.0
C97   C   0.185839020224137   0.220230705814245   0.107102077083333   1.0
C98   C   0.405991009713162   0.184006994218656   0.137499968749999   1.0
C99   C   0.572921832825948   0.187524871788376   0.137935479166664   1.0
C100   C   0.640504369639324   0.139487592356673   0.163860479166665   1.0
C101   C   0.112743812392473   0.682733175151569   0.224506218750001   1.0
C102   C   0.187301064960955   0.594102325705585   0.209747950000001   1.0
C103   C   0.081985095727958   0.523089446570573   0.197175027083333   1.0
C104   C   0.152351011865399   0.438819862782843   0.181718827083330   1.0
C105   C   0.051334716780964   0.380645713941178   0.163070837500001   1.0
C106   C   0.350961167724421   0.235823113066573   0.111522993750000   1.0
C107   C   0.130137610020782   0.116792417967325   0.206060412500001   1.0
C108   C   0.229323546786475   0.176308104325457   0.224850018749997   1.0
C109   C   0.167979401818975   0.453640918402307   0.505274931250000   1.0
C110   C   0.022449734678190   0.501485019315112   0.507912477083330   1.0
C111   C   0.257970235731087   0.345813308669228   0.308100064583336   1.0
C112   C   0.223377568220165   0.421756889642168   0.331381320833330   1.0
C113   C   0.168477670841533   0.356366804413227   0.281264622916666   1.0
C114   C   0.280530279281919   0.477811625468561   0.381316662499998   1.0
C115   C   0.049720947253100   0.039743787816256   0.222410362500000   1.0
C116   C   0.327014795620244   0.411570993920279   0.357618808333335   1.0
C117   C   0.957600323564030   0.983876254503379   0.199275016666668   1.0
C118   C   0.871941785334535   0.901437620725758   0.211139520833335   1.0
C119   C   0.247248018360942   0.463697021631006   0.477483274999997   1.0
C120   C   0.309924263455152   0.565426114269819   0.472022852083334   1.0
H121   H   0.363838594108060   0.922076155386748   0.548206329166668   1.0
H122   H   0.383127819834861   0.037516302095739   0.539787454166664   1.0
H123   H   0.593478197204931   0.973964245812120   0.505362510416667   1.0
H124   H   0.278732347547830   0.933393765237192   0.498745758333335   1.0
H125   H   0.659208552196532   0.031777952862484   0.551847935416667   1.0
H126   H   0.389983453994020   0.026858936313715   0.483504137499999   1.0
H127   H   0.403380821275931   0.335800450381754   0.528797943750000   1.0
H128   H   0.484284900882521   0.444658859768950   0.540545783333336   1.0
H129   H   0.577817272361479   0.241056579953891   0.553870837500000   1.0
H130   H   0.533444588793650   0.863563140367901   0.514845847916668   1.0
H131   H   0.408362915822749   0.276234988007765   0.625895818750003   1.0
H132   H   0.356018978454713   0.259215252599617   0.572795868749999   1.0
H133   H   0.392138760482212   0.380155472447988   0.585181235416670   1.0
H134   H   0.589330052898006   0.291445356228600   0.616902033333332   1.0
H135   H   0.659663434145571   0.045133726564579   0.385814508333333   1.0
H136   H   0.848797034360310   0.039391253959700   0.389331183333333   1.0
H137   H   0.642605447700880   0.995727350788229   0.437356312500000   1.0
H138   H   0.828034716763639   0.004087450714536   0.438360372916669   1.0
H139   H   0.631926498268506   0.910289951744154   0.561212541666670   1.0
H140   H   0.622157323564721   0.174332922812759   0.422212441666666   1.0
H141   H   0.814583326835020   0.176726230067352   0.427489600000001   1.0
H142   H   0.668100411247941   0.339671481755509   0.566727162500001   1.0
H143   H   0.019980321373666   0.652629628351285   0.325127125000002   1.0
H144   H   0.788622531680581   0.971405189110364   0.317037422916670   1.0
H145   H   0.067992060533783   0.681291400777681   0.372252145833336   1.0
H146   H   0.935257074584001   0.025760353332004   0.590045770833335   1.0
H147   H   0.568470542191555   0.140855816449637   0.468287468749999   1.0
H148   H   0.914245828255986   0.499870272385024   0.386235395833332   1.0
H149   H   0.942990035226060   0.420870184525491   0.412672837499997   1.0
H150   H   0.679494305137929   0.550410366306210   0.415699958333335   1.0
H151   H   0.754961202468735   0.493757258611843   0.443797906249998   1.0
H152   H   0.882674844057803   0.673556489052288   0.414183299999998   1.0
H153   H   0.973315368528894   0.582698081798867   0.436745804166669   1.0
H154   H   0.718440669444135   0.714069364972225   0.450327079166669   1.0
H155   H   0.771770281843125   0.623643508052702   0.473833402083336   1.0
H156   H   0.202788777256529   0.653487462657893   0.327518781249999   1.0
H157   H   0.936658999089893   0.009041941234919   0.332102141666667   1.0
H158   H   0.845298667256543   0.073108503467829   0.274062475000001   1.0
H159   H   0.706234713800406   0.138450953662328   0.309633254166670   1.0
H160   H   0.804543324083198   0.234626419791468   0.293439547916670   1.0
H161   H   0.884743495534707   0.156714880414867   0.349041620833333   1.0
H162   H   0.977376846993998   0.243810321791095   0.331968783333331   1.0
H163   H   0.161134511538229   0.865949224513464   0.402200062500000   1.0
H164   H   0.207629977534900   0.750300220381234   0.414108279166669   1.0
H165   H   0.309436954921459   0.828082039351557   0.358031272916669   1.0
H166   H   0.341560219958382   0.716066057220807   0.373841604166664   1.0
H167   H   0.038143194411518   0.797610834859633   0.362802029166666   1.0
H168   H   0.000716612358097   0.112299975747078   0.289210479166670   1.0
H169   H   0.737524136902657   0.110450946338297   0.480610370833333   1.0
H170   H   0.098458288105071   0.073735616389413   0.475456237499998   1.0
H171   H   0.821395779700588   0.449971665516593   0.308304152083331   1.0
H172   H   0.529491448046073   0.992433865372263   0.313233375000003   1.0
H173   H   0.995745359164388   0.173244446416746   0.465614637499996   1.0
H174   H   0.071620253111909   0.433506992156971   0.631749947916667   1.0
H175   H   0.009388146088327   0.346894569164903   0.654479185416669   1.0
H176   H   0.851006363495209   0.937776693013859   0.686124962500003   1.0
H177   H   0.723260284490969   0.002745913198069   0.669020812500001   1.0
H178   H   0.133733365183737   0.808344511851480   0.508429210416665   1.0
H179   H   0.998276019074197   0.882896844170318   0.500491618749997   1.0
H180   H   0.698891565327635   0.432144556643408   0.371927104166666   1.0
H181   H   0.677317196807749   0.356561424670453   0.402610460416668   1.0
H182   H   0.497086513607989   0.097085339980787   0.296031316666664   1.0
H183   H   0.056706612666545   0.942159476616695   0.287018777083333   1.0
H184   H   0.422745860660911   0.917938380795789   0.399810472916670   1.0
H185   H   0.475306386819824   0.814385481960294   0.416145804166668   1.0
H186   H   0.643482763353255   0.996491407225136   0.604104200000002   1.0
H187   H   0.458215757180028   0.965011130075737   0.600845816666670   1.0
H188   H   0.719090554952516   0.397413073054580   0.514639537500003   1.0
H189   H   0.573387556128097   0.424676395343909   0.494693756250001   1.0
H190   H   0.705108469416686   0.870562729501316   0.414352100000002   1.0
H191   H   0.869559135346528   0.873374227376033   0.395693779166663   1.0
H192   H   0.880075507804214   0.580348019485498   0.281568687499998   1.0
H193   H   0.113566921279258   0.989556717942669   0.601391633333336   1.0
H194   H   0.907476751633418   0.885816414750288   0.280481179166664   1.0
H195   H   0.728935543314464   0.404167653176117   0.278368791666665   1.0
H196   H   0.528841660012397   0.557734447485650   0.233806291666667   1.0
H197   H   0.582116935679522   0.076044567534296   0.165370783333330   1.0
H198   H   0.566466852189187   0.489633915821571   0.307889620833336   1.0
H199   H   0.582106094326399   0.556371939885160   0.276652018749999   1.0
H200   H   0.751582252707109   0.593157871760084   0.330239616666667   1.0
H201   H   0.757787990527362   0.660775514796462   0.298581283333334   1.0
H202   H   0.510765441985832   0.634081707982418   0.343766689583333   1.0
H203   H   0.463262813201382   0.685061510468302   0.311656316666664   1.0
H204   H   0.677143886785167   0.815120804552272   0.321297964583330   1.0
H205   H   0.504267182580776   0.817485168909883   0.338031291666667   1.0
H206   H   0.208398966300265   0.679431507870582   0.780562560416669   1.0
H207   H   0.321859499356059   0.726691661507409   0.672583262499998   1.0
H208   H   0.720043695093580   0.588162270071209   0.234516620833332   1.0
H209   H   0.154885386644459   0.800573571085209   0.666166625000002   1.0
H210   H   0.844085659556299   0.616766430633916   0.573820910416664   1.0
H211   H   0.522711519239863   0.513300014472172   0.452733358333333   1.0
H212   H   0.475154759503482   0.638774551830593   0.451027074999999   1.0
H213   H   0.180542829691504   0.427019234548247   0.271837552083333   1.0
H214   H   0.055515298503067   0.354730474660336   0.288902125000000   1.0
H215   H   0.800492784445915   0.872631753761937   0.194393793750002   1.0
H216   H   0.808832254353348   0.927021296234059   0.229147912499997   1.0
H217   H   0.978828245327108   0.425159334432458   0.151002089583336   1.0
H218   H   0.983582801424710   0.335043544966965   0.174910387499999   1.0
H219   H   0.758557065936913   0.122662484414448   0.160054208333335   1.0
H220   H   0.766170836677802   0.518634475129538   0.577075004166666   1.0
H221   H   0.859963292326377   0.863901934458170   0.589499949999997   1.0
H222   H   0.493989005806547   0.348199392814784   0.204739570833333   1.0
H223   H   0.054128959119197   0.951336162715975   0.551387468750001   1.0
H224   H   0.252230112907767   0.490506189137555   0.322770754166669   1.0
H225   H   0.114368325798758   0.426608324706692   0.337010383333336   1.0
H226   H   0.437821969775740   0.416725194034193   0.351293724999998   1.0
H227   H   0.311700512483000   0.342050350000726   0.368818760416666   1.0
H228   H   0.008716567043187   0.813570827716681   0.603518804166669   1.0
H229   H   0.172268332089125   0.460676601454821   0.387408256249998   1.0
H230   H   0.887147828228954   0.034036652217857   0.188154220833333   1.0
H231   H   0.019893666362371   0.952525632882036   0.182985464583332   1.0
H232   H   0.968994011674091   0.075263188611352   0.237383366666670   1.0
H233   H   0.109754566494907   0.989446576342914   0.235522906249997   1.0
H234   H   0.051746319961708   0.166165518423007   0.195510387500001   1.0
H235   H   0.202063067259452   0.074655459861617   0.191431204166669   1.0
H236   H   0.307617340481130   0.129816411636135   0.234827041666669   1.0
H237   H   0.300815826443390   0.220663198478611   0.212245783333330   1.0
H238   H   0.226735041055477   0.467013055834457   0.167035420833336   1.0
H239   H   0.219608589678806   0.395387502787237   0.195691743749997   1.0
H240   H   0.012738503270299   0.559659096069858   0.183110395833332   1.0
H241   H   0.022904616627230   0.491010790344518   0.213164647916663   1.0
H242   H   0.270154595312761   0.623766019767331   0.195670764583333   1.0
H243   H   0.244020587610436   0.539604580771758   0.223997910416664   1.0
H244   H   0.050868993478815   0.657243133339144   0.241722902083332   1.0
H245   H   0.212536269254073   0.274677925028278   0.316385429166665   1.0
H246   H   0.373402021374076   0.335958983928570   0.304372947916669   1.0
H247   H   0.934444612100933   0.471258968008897   0.495120843750001   1.0
H248   H   0.031774771311348   0.577385283259915   0.502681256250000   1.0
H249   H   0.161795249230252   0.580557150839020   0.687500000000000   1.0
H250   H   0.010536094839331   0.643568302944516   0.677312533333335   1.0
H251   H   0.182600639815291   0.728284811197298   0.722604116666666   1.0
H252   H   0.020586830639047   0.759174141431124   0.713645777083336   1.0
H253   H   0.084584431981547   0.555571789529154   0.736958345833337   1.0
H254   H   0.922563604626660   0.609615322010669   0.724020799999998   1.0
H255   H   0.913823383722125   0.715640787665478   0.762249947916665   1.0
H256   H   0.896906064104911   0.606486764251017   0.774291675000001   1.0
H257   H   0.582051974204987   0.597144393582802   0.536297958333336   1.0
H258   H   0.640471921393626   0.700545772928464   0.552679220833333   1.0
H259   H   0.210478469960812   0.720585935721481   0.234695912500001   1.0
H260   H   0.506595712447371   0.534767505421009   0.580802124999998   1.0
H261   H   0.320159172291604   0.623246979550991   0.550604185416667   1.0
H262   H   0.374506691356792   0.730980948379511   0.566833337500000   1.0
H263   H   0.136235205072914   0.649630870293521   0.588758310416665   1.0
H264   H   0.246273292988334   0.560178143494888   0.599108379166665   1.0
H265   H   0.223518343352865   0.610855253018300   0.463585377083334   1.0
H266   H   0.346683089637914   0.600056676175505   0.490825018750002   1.0
H267   H   0.170362160112205   0.447398169805460   0.462768714583334   1.0
H268   H   0.327372278679569   0.407714329468988   0.474022866666665   1.0
H269   H   0.237240658804225   0.454866410400562   0.522775014583331   1.0
H270   H   0.145365346451953   0.376125842649195   0.504681268749998   1.0
H271   H   0.556004621513956   0.639646817937887   0.598416645833332   1.0
H272   H   0.624020227603864   0.152411291498531   0.118654091666670   1.0
H273   H   0.265909052116129   0.553358742818020   0.372243724999997   1.0
H274   H   0.378015791508453   0.106958371276285   0.137620766666665   1.0
H275   H   0.368279151694551   0.199577811439482   0.402804216666666   1.0
H276   H   0.208539741432972   0.037656893209032   0.375183264583335   1.0
H277   H   0.165206853017501   0.152036475576075   0.368554116666665   1.0
H278   H   0.834522232290276   0.399215289219775   0.603010495833331   1.0
H279   H   0.826930155086153   0.297998020896962   0.624787491666666   1.0
H280   H   0.112754664576116   0.328735896519177   0.594122887499999   1.0
H281   H   0.035966194386568   0.228167460905894   0.608947912500000   1.0
H282   H   0.884017796368155   0.304341691176937   0.556327025000002   1.0
H283   H   0.873739619593920   0.191684229202139   0.572612445833336   1.0
H284   H   0.150932256727401   0.282182187455568   0.543837547916667   1.0
H285   H   0.377907442960400   0.066423854864006   0.409841697916669   1.0
H286   H   0.138498762634455   0.164824672940938   0.559812545833331   1.0
H287   H   0.597637085390268   0.863837027398539   0.689916610416667   1.0
H288   H   0.825034824462357   0.759094809779498   0.656062443750002   1.0
H289   H   0.793041384899787   0.756557335900553   0.692833264583335   1.0
H290   H   0.610081312531108   0.676562542306009   0.646104177083330   1.0
H291   H   0.550600179907974   0.675841651514716   0.680062454166666   1.0
H292   H   0.617359391224120   0.261385126456453   0.136368752083335   1.0
H293   H   0.625536489936799   0.516241167874945   0.671270847916666   1.0
H294   H   0.963448892410106   0.740755876590313   0.550141652083333   1.0
H295   H   0.849273393235656   0.833870575496093   0.540997983333334   1.0
H296   H   0.149849171976221   0.850126182380421   0.562393825000001   1.0
H297   H   0.581174745196790   0.848100467939240   0.652520816666666   1.0
H298   H   0.101198410321885   0.193262947091348   0.415562470833336   1.0
H299   H   0.760311513122780   0.558779678940446   0.691541672916664   1.0
H300   H   0.214095799524777   0.264701088572991   0.452893735416666   1.0
H301   H   0.120303463011943   0.077232595962030   0.425395806250002   1.0
H302   H   0.369892921222416   0.220309972587650   0.156277020833336   1.0
H303   H   0.402557723219672   0.207406428947664   0.092654229166669   1.0
H304   H   0.151701126357018   0.254789151968652   0.087035337499998   1.0
H305   H   0.153639844054339   0.150457764895556   0.105145772916664   1.0
H306   H   0.751473795853833   0.538602514962577   0.181702137499997   1.0
H307   H   0.561365676046421   0.515001308954233   0.180675031249997   1.0
H308   H   0.723260284490969   0.379593259377344   0.184281191666663   1.0
H309   H   0.799366334282261   0.419623102495741   0.215066591666670   1.0
H310   H   0.541870702881852   0.406971855854884   0.235314529166665   1.0
H311   H   0.374051809407753   0.311766621952593   0.115935485416664   1.0
H312   H   0.536715406617674   0.228311627530246   0.244916597916664   1.0
H313   H   0.721375903525519   0.272378323556474   0.245962460416664   1.0
H314   H   0.585712701672996   0.883314969912220   0.207281270833335   1.0
H315   H   0.311787178324813   0.877295719591352   0.239916643750000   1.0
H316   H   0.375708857703913   0.971116863070357   0.218514602083332   1.0
H317   H   0.422236761115755   0.825551723703420   0.196643829166668   1.0
H318   H   0.529957160517704   0.021284483893865   0.250068822916667   1.0
H319   H   0.310000077113322   0.918024863469540   0.287512462499997   1.0
H320   H   0.290765079813156   0.032160258615562   0.272839545833335   1.0
H321   H   0.563510141181496   0.907853406757027   0.266366641666664   1.0
H322   H   0.327361437326452   0.154321645247194   0.458945910416666   1.0
O323   O   0.839634358091388   0.553928243875923   0.535633406250000   1.0
O324   O   0.591052170973924   0.680945325908844   0.211256185416666   1.0
O325   O   0.371636624529870   0.558959867396979   0.421412468749999   1.0
O326   O   0.223193406013941   0.288561879567730   0.261925062499998   1.0
O327   O   0.973932816622096   0.832904531519098   0.222349962499997   1.0
O328   O   0.190052028530886   0.684701140763920   0.639812470833334   1.0
O329   O   0.138531297524331   0.328152021330112   0.144527116666666   1.0
O330   O   0.624150161383454   0.202547770774103   0.185993670833334   1.0
O331   O   0.930112511367717   0.743041039052741   0.496279239583330   1.0
O332   O   0.132412008935440   0.192599740250657   0.500570775000000   1.0
O333   O   0.878743299372282   0.454368953007027   0.654833316666668   1.0
O334   O   0.843576657485848   0.919084541142411   0.642166614583331   1.0
O335   O   0.829323754732506   0.317821966192561   0.374281250000003   1.0
O336   O   0.992015944522080   0.843285119585133   0.316702047916664   1.0
O337   O   0.347582001352343   0.908739974908563   0.439708391666670   1.0
O338   O   0.871324326410807   0.524286067758759   0.271043777083335   1.0
O339   O   0.513321510301644   0.101383846769515   0.591185410416664   1.0
O340   O   0.343932115237450   0.063509366411658   0.327272891666667   1.0
O341   O   0.066367438822276   0.696941484771912   0.810958387500001   1.0
O342   O   0.508133668317065   0.131008700400635   0.357800006250002   1.0
O343   O   0.790561238547369   0.312537966376759   0.465512435416670   1.0
O344   O   0.622883022731273   0.275903417026534   0.498952070833333   1.0
O345   O   0.385163936421890   0.759887737026467   0.621097883333334   1.0
O346   O   0.031114141924554   0.494571840768536   0.558052062500003   1.0
O347   O   0.429471550209953   0.403367495611420   0.416252137500003   1.0
O348   O   0.012334026573427   0.249115911638398   0.239772956250000   1.0
O349   O   0.947777017908315   0.721162717557952   0.187827110416670   1.0
O350   O   0.952055193469526   0.242512714041553   0.127562522916669   1.0
O351   O   0.683566527481453   0.097868924763375   0.219974995833333   1.0
O352   O   0.515151868620386   0.735068262128905   0.255581220833335   1.0
O353   O   0.914874031058126   0.130467313240175   0.518664520833333   1.0
O354   O   0.851049750568734   0.587672100664939   0.627166589583332   1.0
O355   O   0.020326963079874   0.036688037842289   0.648166656249998   1.0
O356   O   0.977420223236997   0.802022496481221   0.450683277083336   1.0
O357   O   0.661526338184714   0.320265662201805   0.338250002083335   1.0
O358   O   0.152253515500988   0.764731956190644   0.286022981249999   1.0
O359   O   0.492429464705317   0.812078736675055   0.464939593750003   1.0
O360   O   0.491389658722433   0.109872852519942   0.636416593749999   1.0
O361   O   0.699552400494355   0.701706365075772   0.378233272916667   1.0
O362   O   0.677295514101516   0.868803895242486   0.371714591666667   1.0


# Number_of_total_atoms: 362
# Number_of_atom_type: 3
# Name_of_each_atom: C H O
# Number_of_each_atom: 120 202 40
# Created_by: Lihua Chen (lihua.chen@mse.gatech.edu)
# Tool: VASP
# K-points: 2 1 1
# Pseudopotential: PBE-HSE06
# Material_class: MC_Pol
# Geometry_class: GC_PD
# Bandgap_(eV): 5.43
