#======================================================================

# Note: Disordered slab of polycaprolactone
# Common_name: Disordered slab-3

#----------------------------------------------------------------------

data_1
_audit_creation_method   'vasp2cif'
_cell_length_a    9.028882
_cell_length_b    13.3132353
_cell_length_c    48.0
_cell_angle_alpha    90.0
_cell_angle_beta    90.0
_cell_angle_gamma    90.0

_symmetry_space_group_name_H-M    'P 1'
loop_
_atom_site_label
_atom_site_type_symbol
_atom_site_fract_x
_atom_site_fract_y
_atom_site_fract_z
_atom_site_occupancy
C1   C   0.885197192742133   0.531847957348127   0.741250039583335   1.0
C2   C   0.868916195825797   0.606998713528334   0.422689597916666   1.0
C3   C   0.923385863277424   0.543836042618430   0.399075031250000   1.0
C4   C   0.790933141002398   0.504394112226052   0.380735397916666   1.0
C5   C   0.003105788734416   0.829003405355571   0.599704106250002   1.0
C6   C   0.006140505546533   0.755940766704541   0.574775060416670   1.0
C7   C   0.026530538332430   0.811622243317522   0.548056285416664   1.0
C8   C   0.005985447589190   0.746191017896301   0.521560352083334   1.0
C9   C   0.004724815320436   0.812846603860443   0.494887510416668   1.0
C10   C   0.661526222183433   0.300649452203402   0.676937420833333   1.0
C11   C   0.669899318653187   0.376341038605396   0.653229237500000   1.0
C12   C   0.745080132844798   0.474641757439684   0.661812464583335   1.0
C13   C   0.785805053161617   0.539359302092407   0.637208304166670   1.0
C14   C   0.803193651218393   0.707718063091697   0.414181233333331   1.0
C15   C   0.851937415950282   0.642692569250990   0.647291660416670   1.0
C16   C   0.054141930307651   0.089974891377452   0.580208304166668   1.0
C17   C   0.022964216389141   0.149146135800663   0.606885433333332   1.0
C18   C   0.995873453656834   0.089476898226231   0.633708318750003   1.0
C19   C   0.997747240466758   0.143993323696456   0.660999935416669   1.0
C20   C   0.154276188347573   0.221104557507523   0.382108370833336   1.0
C21   C   0.149369700478971   0.252742291725291   0.413104216666667   1.0
C22   C   0.159127331600963   0.159496685227218   0.433533352083330   1.0
C23   C   0.113363038746101   0.194138955840437   0.461695829166665   1.0
C24   C   0.093061510827141   0.107317805762811   0.480675062499998   1.0
C25   C   0.444145952954088   0.986538336027159   0.233312447916667   1.0
C26   C   0.394350175359477   0.033531811760284   0.261043708333332   1.0
C27   C   0.486532153150300   0.120279320834960   0.273043791666666   1.0
C28   C   0.101667205308473   0.154276316291053   0.556454181249997   1.0
C29   C   0.734270488860084   0.770392550637183   0.437995910416667   1.0
C30   C   0.909873703078631   0.977735141509896   0.302187443750000   1.0
C31   C   0.896372518768104   0.081629797379151   0.317247868750002   1.0
C32   C   0.563595935798034   0.904604885936330   0.334962527083334   1.0
C33   C   0.529317084883822   0.797605995891921   0.321470897916669   1.0
C34   C   0.665502362307983   0.732926052918181   0.311633270833333   1.0
C35   C   0.653629297625109   0.624229731746723   0.302208264583335   1.0
C36   C   0.797744471574667   0.581310059170967   0.290004095833332   1.0
C37   C   0.516358703104103   0.222291376462039   0.477772870833334   1.0
C38   C   0.590288077748717   0.231898365080347   0.447966735416664   1.0
C39   C   0.637569668094010   0.131149000273432   0.436199983333331   1.0
C40   C   0.727425787600282   0.134363838668129   0.406977018749998   1.0
C41   C   0.503854308872349   0.024063790114191   0.647124927083333   1.0
C42   C   0.464192698497996   0.109619252354086   0.624574979166667   1.0
C43   C   0.584273999815260   0.132102945705469   0.602297941666670   1.0
C44   C   0.516137213887610   0.169749670089587   0.574768702083333   1.0
C45   C   0.624688715612855   0.175150333292763   0.552029133333335   1.0
C46   C   0.523646393872461   0.929196969875534   0.498227120833334   1.0
C47   C   0.586976527104909   0.888771003694345   0.525047937499998   1.0
C48   C   0.493487654396191   0.884241616310952   0.551456293750000   1.0
C49   C   0.588150537353350   0.826960273135114   0.573677062500003   1.0
C50   C   0.496311846804510   0.799596548856911   0.599481264583332   1.0
C51   C   0.111458085286749   0.780427692132804   0.342241606249999   1.0
C52   C   0.136411329774830   0.845693593352173   0.368760427083331   1.0
C53   C   0.218525571604545   0.794361134742360   0.391791662499997   1.0
C54   C   0.294891593444241   0.870248000499174   0.411402066666668   1.0
C55   C   0.328893610526755   0.813064372113963   0.437933285416669   1.0
C56   C   0.875528310149583   0.314237479149789   0.324570814583332   1.0
C57   C   0.789083443553700   0.250015636695011   0.304781279166669   1.0
C58   C   0.876868476074890   0.161216823081311   0.294972895833332   1.0
C59   C   0.398049470576758   0.171559921276234   0.295497893750003   1.0
C60   C   0.374203705397854   0.117942563517978   0.322908402083335   1.0
C61   C   0.738778134435691   0.031270911286306   0.394481183333333   1.0
C62   C   0.624533657655512   0.514038642432766   0.220270793750004   1.0
C63   C   0.519925025047399   0.444829304564308   0.543481191666665   1.0
C64   C   0.659299877880784   0.511589913835593   0.545156320833335   1.0
C65   C   0.055725769812916   0.546036845003407   0.739229202083337   1.0
C66   C   0.105111729226273   0.630178759027871   0.719687462499998   1.0
C67   C   0.272806921166982   0.631049967245751   0.715312481250002   1.0
C68   C   0.321207188221088   0.546960767680567   0.693541685416669   1.0
C69   C   0.318637656356564   0.591773285941997   0.663291614583336   1.0
C70   C   0.658890259059760   0.912589443979854   0.361275037500001   1.0
C71   C   0.628919627036879   0.203573169025262   0.501089572916669   1.0
C72   C   0.545919417265615   0.922954963471575   0.635749977083336   1.0
C73   C   0.432627361837270   0.845077687464894   0.483802160416666   1.0
C74   C   0.029875359983663   0.832473621194090   0.318702062500002   1.0
C75   C   0.367458717480190   0.494847221696745   0.546487489583335   1.0
C76   C   0.780322702190595   0.379683607034274   0.342222849999999   1.0
C77   C   0.984689045664787   0.777618367490284   0.626291593749997   1.0
C78   C   0.815753511896602   0.253253039101622   0.680416743750001   1.0
C79   C   0.119022620962376   0.098733881763508   0.528620879166667   1.0
C80   C   0.274889094796009   0.161164243825844   0.368189654166670   1.0
C81   C   0.579345438338876   0.913633435142543   0.235074997916669   1.0
C82   C   0.698983750147583   0.323220967934070   0.203074933333333   1.0
C83   C   0.064431166560823   0.835786099266194   0.207764625000003   1.0
C84   C   0.182419185453966   0.344868628589474   0.235152085416665   1.0
C85   C   0.354389546789960   0.486306855854941   0.396787485416667   1.0
C86   C   0.770210619653682   0.475483025527239   0.499956291666663   1.0
C87   C   0.331983671954070   0.536084365608708   0.616960366666667   1.0
C88   C   0.683921021450942   0.404433428739893   0.226091704166670   1.0
C89   C   0.842179784828289   0.827756555913950   0.455477079166670   1.0
C90   C   0.280449085501395   0.437903850463755   0.569608370833336   1.0
C91   C   0.113407285641792   0.377542910249623   0.115975062499999   1.0
C92   C   0.386231850189205   0.543896148218757   0.444220860416664   1.0
C93   C   0.726163139578077   0.577922370229572   0.201100031250000   1.0
C94   C   0.336735090789759   0.440014532004852   0.600345770833336   1.0
C95   C   0.648124762290614   0.675682251330748   0.192902087500002   1.0
C96   C   0.633250240727477   0.748752483928534   0.217912514583332   1.0
C97   C   0.227297388536030   0.322011652569529   0.098337491666669   1.0
C98   C   0.474315790149873   0.305644526541194   0.125916639583330   1.0
C99   C   0.634213748723262   0.341218110972619   0.129047870833332   1.0
C100   C   0.707489720211207   0.299740634795214   0.154664516666664   1.0
C101   C   0.153345840603521   0.760770584442383   0.226385437499999   1.0
C102   C   0.230597952216009   0.679092436682161   0.208639620833331   1.0
C103   C   0.126155364529076   0.615110926492825   0.191972891666666   1.0
C104   C   0.205821850368629   0.552691883993070   0.168643791666668   1.0
C105   C   0.095608869403762   0.477007816424610   0.155110360416664   1.0
C106   C   0.397650739039449   0.342848060380938   0.099054177083332   1.0
C107   C   0.175652013172836   0.218761055023194   0.191133339583331   1.0
C108   C   0.275243579437628   0.292034018207431   0.210775058333333   1.0
C109   C   0.026718867297191   0.508758167896275   0.489879131249999   1.0
C110   C   0.905044744188707   0.435289940379853   0.486487547916667   1.0
C111   C   0.285909362864636   0.453174398562609   0.291518687500002   1.0
C112   C   0.242736786237764   0.507751643208771   0.319956302083334   1.0
C113   C   0.187104184106069   0.489912245447954   0.267020862499997   1.0
C114   C   0.256703033664635   0.498715507567120   0.370854218749997   1.0
C115   C   0.108788840080088   0.125004701148789   0.205558300000000   1.0
C116   C   0.335705029703568   0.461234032271626   0.343806266666668   1.0
C117   C   0.005586704976317   0.060441168646662   0.188985347916670   1.0
C118   C   0.924349371273209   0.988994508344639   0.209664662500003   1.0
C119   C   0.163502092507137   0.487591246884968   0.470404147916668   1.0
C120   C   0.279740238049406   0.568826196589498   0.468289535416666   1.0
H121   H   0.397827981360258   0.832766600316901   0.546889622916666   1.0
H122   H   0.452009617580558   0.956478032052807   0.557772954166666   1.0
H123   H   0.662367854624748   0.947404354822751   0.531129202083335   1.0
H124   H   0.450049219825885   0.993148246992973   0.501277129166667   1.0
H125   H   0.688317966720575   0.871735257319457   0.581585408333332   1.0
H126   H   0.609050112738210   0.947321692721829   0.482822895833337   1.0
H127   H   0.423811264783389   0.117637618858879   0.569704214583332   1.0
H128   H   0.471569115644662   0.245291045070012   0.576618672916666   1.0
H129   H   0.650461596463437   0.070818788878462   0.599043687500000   1.0
H130   H   0.653850676085924   0.823219717298919   0.520024937499997   1.0
H131   H   0.405558661637180   0.018705242894640   0.660145760416668   1.0
H132   H   0.364988887882241   0.078876206747431   0.613818804166669   1.0
H133   H   0.434310914684673   0.181166834781322   0.635583402083334   1.0
H134   H   0.582911760282173   0.045725699747827   0.662833372916666   1.0
H135   H   0.689757845988019   0.195949139425188   0.391666731249998   1.0
H136   H   0.836819121127064   0.153818148170188   0.414752008333330   1.0
H137   H   0.544368837692197   0.079882723923610   0.431433360416669   1.0
H138   H   0.699482095346909   0.086464850508577   0.451068718750001   1.0
H139   H   0.631843532787336   0.762302826571393   0.565058389583335   1.0
H140   H   0.517300137492107   0.267997734555173   0.432833354166668   1.0
H141   H   0.685482576912626   0.274930715000586   0.450116635416670   1.0
H142   H   0.646131193208639   0.193102348307477   0.607947985416665   1.0
H143   H   0.052458477140362   0.713276396459392   0.347658316666667   1.0
H144   H   0.797921702819906   0.080734447771682   0.331120808333331   1.0
H145   H   0.032821549777701   0.873763344361535   0.375941593750000   1.0
H146   H   0.909220089486162   0.883340325247616   0.595318793750003   1.0
H147   H   0.481681120652588   0.299207330918279   0.483783404166665   1.0
H148   H   0.995221955497925   0.594222007027845   0.387679100000000   1.0
H149   H   0.988995470314045   0.483820593180681   0.407712460416668   1.0
H150   H   0.777797428297326   0.566527762038426   0.432379245833331   1.0
H151   H   0.963789481355498   0.617484571913188   0.437074979166667   1.0
H152   H   0.705075345984142   0.694693362777116   0.399168810416668   1.0
H153   H   0.883070772217422   0.753432015131587   0.404010454166666   1.0
H154   H   0.659687522774135   0.827756555913950   0.430170854166668   1.0
H155   H   0.660473998884910   0.721155803503301   0.449483395833333   1.0
H156   H   0.214394362447088   0.745702766929988   0.337710381249998   1.0
H157   H   0.989837202435474   0.099957461128923   0.331137499999997   1.0
H158   H   0.812652363825336   0.136752386551748   0.278537433333334   1.0
H159   H   0.687409803339996   0.223395540826957   0.313102085416666   1.0
H160   H   0.758536948428386   0.297637404485748   0.287120818749997   1.0
H161   H   0.933962931401695   0.266180032136894   0.338672956250001   1.0
H162   H   0.952614166405098   0.361791622506665   0.313910485416670   1.0
H163   H   0.391415171889498   0.898836092831623   0.400406202083332   1.0
H164   H   0.222313371688763   0.930000696374684   0.416124979166668   1.0
H165   H   0.299831352320254   0.732129920365786   0.387300014583332   1.0
H166   H   0.148428266090974   0.751471552523377   0.404331208333332   1.0
H167   H   0.202321970760053   0.911748183403624   0.363760470833334   1.0
H168   H   0.981643264359860   0.178936024664118   0.287377039583333   1.0
H169   H   0.425926620815289   0.170403177655849   0.477029166666668   1.0
H170   H   0.190039176500477   0.052702238350733   0.480227152083330   1.0
H171   H   0.877732281804107   0.582962504989304   0.307150045833332   1.0
H172   H   0.335162337928438   0.046545981201127   0.319808324999997   1.0
H173   H   0.986992719585878   0.068914698743434   0.477606295833333   1.0
H174   H   0.075573210503805   0.205360856199995   0.661874931249997   1.0
H175   H   0.012874406820245   0.087420298205053   0.676645756250004   1.0
H176   H   0.944274230187084   0.628503674084392   0.659729162500000   1.0
H177   H   0.781740397094566   0.690464548463289   0.659020902083334   1.0
H178   H   0.120816874115754   0.811809921214270   0.490022977083335   1.0
H179   H   0.963844825970703   0.887546643151424   0.502824941666667   1.0
H180   H   0.722785046919434   0.563891287942610   0.375233333333334   1.0
H181   H   0.731080614410509   0.453174398562609   0.394768716666668   1.0
H182   H   0.487307431861438   0.131239113605993   0.333872954166665   1.0
H183   H   0.975241541533052   0.986808826251270   0.281735420833336   1.0
H184   H   0.397850054968046   0.748354353806093   0.434133370833337   1.0
H185   H   0.227529975472045   0.793084194943958   0.447893779166670   1.0
H186   H   0.552819452065052   0.743103894513155   0.611797968749997   1.0
H187   H   0.400906945068059   0.762693377769715   0.592295806250000   1.0
H188   H   0.683489007830651   0.103082186191060   0.549781322916665   1.0
H189   H   0.718244241092087   0.228458164485382   0.558858395833333   1.0
H190   H   0.700257374058047   0.979996041983874   0.410889627083335   1.0
H191   H   0.850010178447342   0.008792520928402   0.390916666666669   1.0
H192   H   0.912332434957065   0.693551671846436   0.276054222916670   1.0
H193   H   0.095453811446426   0.884609671099255   0.599922974999998   1.0
H194   H   0.804035483019938   0.944602624126986   0.298029104166666   1.0
H195   H   0.791198899265709   0.502336009940421   0.285785358333335   1.0
H196   H   0.565811093776617   0.711864358019724   0.234845797916670   1.0
H197   H   0.689370201094668   0.213135029619735   0.156652133333331   1.0
H198   H   0.597177136659887   0.580356046137034   0.318856239583333   1.0
H199   H   0.566796786135868   0.631170163423761   0.286285399999997   1.0
H200   H   0.744991616902290   0.730507422189106   0.328566710416666   1.0
H201   H   0.727292902930841   0.778752614700650   0.297358354166668   1.0
H202   H   0.474780964021903   0.754378441730090   0.336183389583333   1.0
H203   H   0.452640936053875   0.800775781375997   0.303477129166666   1.0
H204   H   0.601496564026419   0.953939197634405   0.318668683333335   1.0
H205   H   0.461490293039603   0.935326223821797   0.342072964583330   1.0
H206   H   0.831934817621935   0.458206946886911   0.748624962500003   1.0
H207   H   0.382410756946428   0.662327180531392   0.658458391666670   1.0
H208   H   0.738479215920641   0.751373837732743   0.227045854166668   1.0
H209   H   0.211226794192235   0.623080446869288   0.658583322916670   1.0
H210   H   0.638012657602566   0.589249496701974   0.537154197916664   1.0
H211   H   0.445541463494592   0.473327283564196   0.448074977083337   1.0
H212   H   0.473197224196753   0.598879056843529   0.441979091666667   1.0
H213   H   0.207594029914226   0.568029988923882   0.263760408333333   1.0
H214   H   0.070999022913355   0.481905183483086   0.269804162500002   1.0
H215   H   0.845225588284350   0.956876169686566   0.194289525000002   1.0
H216   H   0.881210076729324   0.034741127124825   0.225927037500000   1.0
H217   H   0.998476145773090   0.516269520151873   0.148010412500000   1.0
H218   H   0.058395015019578   0.424128070507400   0.171318689583330   1.0
H219   H   0.828878027202038   0.307732651581695   0.154341697916664   1.0
H220   H   0.690610664753400   0.518710654802291   0.566985447916664   1.0
H221   H   0.904524015265679   0.720156797649331   0.571787516666667   1.0
H222   H   0.509104183663048   0.509073643429105   0.212527116666664   1.0
H223   H   0.933910001260401   0.859762284829444   0.545324962499997   1.0
H224   H   0.275974500497405   0.582624540557774   0.316520850000003   1.0
H225   H   0.120617558187163   0.512250947746715   0.323820910416664   1.0
H226   H   0.446549340217317   0.490753506024191   0.341493766666666   1.0
H227   H   0.343701678679601   0.385932989556643   0.344004154166669   1.0
H228   H   0.088509507600165   0.697442514217414   0.577660402083332   1.0
H229   H   0.158274512835590   0.452002617275156   0.372737566666665   1.0
H230   H   0.920705531426812   0.107059423790098   0.180941741666665   1.0
H231   H   0.063733405752785   0.015865970610463   0.173212529166669   1.0
H232   H   0.054917220094360   0.140628266368879   0.225472927083331   1.0
H233   H   0.205456400914308   0.084818421259328   0.212435404166669   1.0
H234   H   0.091909673866596   0.262146422064667   0.179345766666664   1.0
H235   H   0.235327208839365   0.194732297715795   0.173412481249997   1.0
H236   H   0.356305575817693   0.245959530212765   0.221454143750002   1.0
H237   H   0.339614738568962   0.345747430754116   0.200033347916666   1.0
H238   H   0.260103199931066   0.605323778811304   0.154997985416664   1.0
H239   H   0.303220431942734   0.514632051910027   0.176716645833331   1.0
H240   H   0.054097672336397   0.661688635518971   0.179033279166667   1.0
H241   H   0.061518347454317   0.568683504001463   0.206400079166670   1.0
H242   H   0.327808204825359   0.712112209118693   0.198252041666670   1.0
H243   H   0.290583153041538   0.628916714181415   0.222052097916666   1.0
H244   H   0.075816884083764   0.738882523919635   0.241885343749999   1.0
H245   H   0.243357018067130   0.374395621175566   0.293427149999999   1.0
H246   H   0.400995560690681   0.454241021339115   0.285589537500002   1.0
H247   H   0.936665447615773   0.372517820668278   0.499129137499999   1.0
H248   H   0.864197926166277   0.410495058252295   0.466856320833337   1.0
H249   H   0.438209426150436   0.519950053012280   0.694625060416669   1.0
H250   H   0.253103440713922   0.481454541707080   0.694104195833333   1.0
H251   H   0.324474480893649   0.621345338950029   0.736312547916668   1.0
H252   H   0.298768031302217   0.704428081429612   0.706250033333333   1.0
H253   H   0.041106019549261   0.631147674525067   0.700312456250003   1.0
H254   H   0.079870553186986   0.697757989750244   0.729812462500000   1.0
H255   H   0.090680307927386   0.469023250869753   0.734625022916667   1.0
H256   H   0.105133902514176   0.570441175932643   0.759750047916668   1.0
H257   H   0.538487644428180   0.386691663145172   0.559495766666664   1.0
H258   H   0.528143063559810   0.413026373837170   0.524258295833334   1.0
H259   H   0.242171910099167   0.798237082161386   0.236904143750003   1.0
H260   H   0.370260836280728   0.570336017421702   0.551985422916665   1.0
H261   H   0.271422497270429   0.357021977971051   0.563847860416665   1.0
H262   H   0.170690180689036   0.471471971955609   0.569066683333332   1.0
H263   H   0.262440155935146   0.393857449511167   0.614456177083333   1.0
H264   H   0.452264377804475   0.414070432601761   0.601891679166670   1.0
H265   H   0.215313634622760   0.633032926263986   0.462910493750002   1.0
H266   H   0.339625825212913   0.589459813723863   0.485724927083332   1.0
H267   H   0.124460725037714   0.481897664649551   0.448841731249999   1.0
H268   H   0.212024257266847   0.412838553225299   0.473193804166670   1.0
H269   H   0.979217692733165   0.585816814940543   0.485539595833330   1.0
H270   H   0.067410516606600   0.499722024743299   0.511262577083336   1.0
H271   H   0.302677729092039   0.500398036230905   0.528208256250004   1.0
H272   H   0.695716357794907   0.319450321741101   0.111127058333331   1.0
H273   H   0.228803710138202   0.580296015649928   0.370664597916665   1.0
H274   H   0.460393800694263   0.223170171115356   0.124504091666665   1.0
H275   H   0.049855773948536   0.295917341744875   0.417914549999999   1.0
H276   H   0.051461698137153   0.179942549351622   0.378210385416665   1.0
H277   H   0.133232652724892   0.287346885546299   0.370695910416664   1.0
H278   H   0.896726992334159   0.038482546763071   0.632187524999999   1.0
H279   H   0.081598264325528   0.029404355228365   0.634791691666663   1.0
H280   H   0.928258969382924   0.203610703102349   0.603618783333332   1.0
H281   H   0.122965600835187   0.190826410166430   0.610097885416664   1.0
H282   H   0.958872017598637   0.042484571725403   0.574110349999998   1.0
H283   H   0.148051718917138   0.039891648275756   0.582941691666669   1.0
H284   H   0.015268712117404   0.207561651073647   0.552631218750001   1.0
H285   H   0.247510289756804   0.295954883333280   0.420408408333330   1.0
H286   H   0.204503879882360   0.195085382438933   0.560341679166669   1.0
H287   H   0.683433663215446   0.542078370687250   0.624904158333337   1.0
H288   H   0.845613233177708   0.455442817870121   0.674020766666665   1.0
H289   H   0.676755006876817   0.519566960556915   0.677145799999998   1.0
H290   H   0.714157190225770   0.341143042818452   0.634125075000000   1.0
H291   H   0.557969613513613   0.391160877326342   0.646791616666668   1.0
H292   H   0.635498570033363   0.422595760776495   0.130670866666669   1.0
H293   H   0.575169982285736   0.243285522039862   0.672333399999999   1.0
H294   H   0.092696050297256   0.690411969207815   0.519281229166666   1.0
H295   H   0.904180728023690   0.705119198186182   0.520958264583335   1.0
H296   H   0.128381509471495   0.855390627701141   0.547056197916667   1.0
H297   H   0.870344877693604   0.498632913068093   0.624152025000001   1.0
H298   H   0.093515609130790   0.100628950800562   0.427418708333335   1.0
H299   H   0.636041272884064   0.344109955000945   0.696312427083335   1.0
H300   H   0.013540901298747   0.236758198061743   0.462439537500003   1.0
H301   H   0.261332676625969   0.120428826192231   0.433904170833337   1.0
H302   H   0.416014042491639   0.333150958430068   0.144483408333336   1.0
H303   H   0.447368987655395   0.319134846208271   0.079187552083333   1.0
H304   H   0.199298362743029   0.344372851278308   0.076837539583330   1.0
H305   H   0.210207819749996   0.243563455984287   0.099314531250002   1.0
H306   H   0.716704648482505   0.719157799306679   0.178570906250002   1.0
H307   H   0.543504921207301   0.668208575867354   0.182010491666666   1.0
H308   H   0.749510459877534   0.532223530969965   0.183195910416664   1.0
H309   H   0.831956990909838   0.597556989021292   0.210729122916668   1.0
H310   H   0.621044864690887   0.545067929506210   0.240181287500001   1.0
H311   H   0.413112210348970   0.424924278173016   0.099325020833334   1.0
H312   H   0.619671538513849   0.370264439027828   0.243020852083333   1.0
H313   H   0.796227273764352   0.420590237746346   0.232820829166670   1.0
H314   H   0.490054206046771   0.051409539798335   0.221779187499998   1.0
H315   H   0.386109952483594   0.977329409929382   0.277939637499998   1.0
H316   H   0.288622866042552   0.067499505548440   0.259183408333335   1.0
H317   H   0.356183788867767   0.953818993945070   0.222539583333337   1.0
H318   H   0.512282849637423   0.178800783307722   0.256037554166667   1.0
H319   H   0.298014925878974   0.197398862168384   0.284954231249998   1.0
H320   H   0.449894161868549   0.244051639348704   0.300997893750001   1.0
H321   H   0.592879793976707   0.089147166203844   0.279358387499997   1.0
H322   H   0.196828533145080   0.246387683090077   0.468904177083331   1.0
O323   O   0.768948182067284   0.468166945115137   0.527593772916667   1.0
O324   O   0.568712925919286   0.845693593352173   0.214570839583331   1.0
O325   O   0.307728188274027   0.544046359640319   0.417756239583333   1.0
O326   O   0.242360239063928   0.438587380784895   0.242650033333334   1.0
O327   O   0.994400403062087   0.906309903498816   0.222122987500001   1.0
O328   O   0.347035413686875   0.517997109237605   0.643270812499999   1.0
O329   O   0.182275225216145   0.439841756571376   0.133904139583336   1.0
O330   O   0.655833269279633   0.352815584954023   0.177660466666666   1.0
O331   O   0.907824578945657   0.770309881024936   0.474360466666667   1.0
O332   O   0.074576431500603   0.153622876326686   0.506622950000001   1.0
O333   O   0.848592483543364   0.189264077680655   0.661208312500001   1.0
O334   O   0.899373953497232   0.695527179633039   0.623600008333334   1.0
O335   O   0.862602988941489   0.445918431262157   0.358362516666666   1.0
O336   O   0.979594350662687   0.923563418127223   0.323954106249999   1.0
O337   O   0.406145722139243   0.876632699491161   0.456593675000001   1.0
O338   O   0.849766615623061   0.638155723124640   0.268341700000001   1.0
O339   O   0.454213688915196   0.887824584607166   0.615393797916667   1.0
O340   O   0.266482738394409   0.166422146839096   0.339560349999999   1.0
O341   O   0.799904284938044   0.601568027570281   0.734354179166665   1.0
O342   O   0.364069637857710   0.109644820894886   0.381275018750003   1.0
O343   O   0.762003778540908   0.198938690732824   0.497364520833337   1.0
O344   O   0.551822673061849   0.209905213648554   0.526406287500002   1.0
O345   O   0.280958517344672   0.613255614884231   0.606120904166666   1.0
O346   O   0.673975172119867   0.519341605867957   0.486920833333336   1.0
O347   O   0.459629608627068   0.425172204385213   0.397691727083334   1.0
O348   O   0.072494136040319   0.307589951482342   0.246989570833335   1.0
O349   O   0.083625093339350   0.835252862991162   0.182762464583334   1.0
O350   O   0.977113423345216   0.358479144434561   0.115104199999998   1.0
O351   O   0.759400953517833   0.241077200821351   0.208985487500002   1.0
O352   O   0.652433202693310   0.906677958287119   0.256962458333334   1.0
O353   O   0.195023193347751   0.025822175620981   0.527943770833332   1.0
O354   O   0.879249678974652   0.262687252286455   0.703125000000000   1.0
O355   O   0.030274091520965   0.810150031675619   0.649250031249998   1.0
O356   O   0.880224395445637   0.913257929122608   0.448831241666667   1.0
O357   O   0.643982366809091   0.362129662051416   0.345887502083336   1.0
O358   O   0.012265261634830   0.790259975349493   0.295789560416665   1.0
O359   O   0.397761428269860   0.764195672257067   0.494420845833332   1.0
O360   O   0.648944398653121   0.882446477904587   0.647062460416670   1.0
O361   O   0.747439372892458   0.848487730101191   0.368839583333333   1.0
O362   O   0.650350907233033   0.009382204789844   0.370393754166663   1.0


# Number_of_total_atoms: 362
# Number_of_atom_type: 3
# Name_of_each_atom: C H O
# Number_of_each_atom: 120 202 40
# Created_by: Lihua Chen (lihua.chen@mse.gatech.edu)
# Tool: VASP
# K-points: 2 1 1
# Pseudopotential: PBE-HSE06
# Material_class: MC_Pol
# Geometry_class: GC_PD
# Bandgap_(eV): 5.36
