#======================================================================

# Note: Disordered slab of polycaprolactone
# Common_name: Disordered slab-4

#----------------------------------------------------------------------

data_1
_audit_creation_method   'vasp2cif'
_cell_length_a    9.2918472
_cell_length_b    13.5422631
_cell_length_c    48.0
_cell_angle_alpha    90.0
_cell_angle_beta    90.0
_cell_angle_gamma    90.0

_symmetry_space_group_name_H-M    'P 1'
loop_
_atom_site_label
_atom_site_type_symbol
_atom_site_fract_x
_atom_site_fract_y
_atom_site_fract_z
_atom_site_occupancy
C1   C   0.438150048356370   0.177793850423718   0.611479122916670   1.0
C2   C   0.553240274979984   0.316382244855369   0.136212508333337   1.0
C3   C   0.440098067906241   0.627940155733647   0.543187460416668   1.0
C4   C   0.039219736631054   0.463617628282528   0.448987485416666   1.0
C5   C   0.298554543600332   0.497998883214727   0.299381256250001   1.0
C6   C   0.043793584982758   0.270592261643479   0.137916724999997   1.0
C7   C   0.970530854187956   0.766986435228837   0.093314647916664   1.0
C8   C   0.583535628954380   0.234616014807749   0.115420818750003   1.0
C9   C   0.497578522384657   0.816475977342371   0.129589558333336   1.0
C10   C   0.225974852449141   0.134765606496010   0.261622906249997   1.0
C11   C   0.044794483921343   0.133901666701483   0.430372875000003   1.0
C12   C   0.893312558992577   0.344612415630884   0.584437529166664   1.0
C13   C   0.066523263533647   0.823845365993520   0.519931316666664   1.0
C14   C   0.822368570589497   0.746015021669457   0.358139514583335   1.0
C15   C   0.756321530986867   0.333742696226302   0.239137491666668   1.0
C16   C   0.970961317573106   0.788792214500688   0.208762487500003   1.0
C17   C   0.441260312588867   0.873866591766337   0.362743695833330   1.0
C18   C   0.539432396176295   0.044895834286365   0.504918735416666   1.0
C19   C   0.666834372825242   0.255181233334625   0.362387497916664   1.0
C20   C   0.568393289980058   0.810280520986183   0.250335374999999   1.0
C21   C   0.613798664274206   0.763249984413612   0.553687572916665   1.0
C22   C   0.515723472077759   0.849535340957893   0.562125049999999   1.0
C23   C   0.599732559097617   0.935052812553906   0.575958410416668   1.0
C24   C   0.483802972997665   0.008713602676941   0.587291716666670   1.0
C25   C   0.543080777307658   0.085319661231509   0.608916600000001   1.0
C26   C   0.812004635633699   0.456292390302181   0.474370797916670   1.0
C27   C   0.658644461996751   0.491257026308993   0.468366622916669   1.0
C28   C   0.590294188221264   0.497216141074681   0.497354191666666   1.0
C29   C   0.456155101216041   0.559406588401018   0.495118777083334   1.0
C30   C   0.003376712867166   0.243964474445932   0.021068731249997   1.0
C31   C   0.296262286792661   0.564287611573576   0.344243685416664   1.0
C32   C   0.271111227485534   0.480431605261018   0.365852039583331   1.0
C33   C   0.338589715508881   0.502953712367322   0.394183320833335   1.0
C34   C   0.832302052922266   0.910640437933893   0.089383285416666   1.0
C35   C   0.923575691171507   0.985354597046637   0.070954164583334   1.0
C36   C   0.302407383539410   0.442483752955589   0.246772925000002   1.0
C37   C   0.036572243676154   0.040840441211039   0.087656179166665   1.0
C38   C   0.215567804429675   0.494683344322262   0.270222983333333   1.0
C39   C   0.128265561663561   0.393311750087030   0.170308272916664   1.0
C40   C   0.207668460152895   0.459977158470657   0.217910449999998   1.0
C41   C   0.095753167357294   0.463543755843880   0.418654125000003   1.0
C42   C   0.258594814172149   0.446788794112266   0.417441685416669   1.0
C43   C   0.100908245671540   0.187629769207483   0.119283358333334   1.0
C44   C   0.981034589118082   0.131058729762827   0.104243756250000   1.0
C45   C   0.274738052085055   0.231470262898675   0.007383345833333   1.0
C46   C   0.958046684194294   0.371808719326978   0.054147879166663   1.0
C47   C   0.063326891557146   0.438186110857643   0.070114612499999   1.0
C48   C   0.980141246834108   0.525283776239732   0.085162481250002   1.0
C49   C   0.088424161774853   0.598262737931890   0.099037489583331   1.0
C50   C   0.049120889547126   0.696650975567003   0.112918695833336   1.0
C51   C   0.574979719855918   0.208844842188896   0.067049981250001   1.0
C52   C   0.502173927268196   0.242864274288102   0.039647899999999   1.0
C53   C   0.342808446096704   0.207663304075076   0.036443710416670   1.0
C54   C   0.118493521933935   0.201253769763191   0.000704129166664   1.0
C55   C   0.589659287552642   0.670658325933722   0.106143791666668   1.0
C56   C   0.485772452220267   0.597051766037538   0.114466666666665   1.0
C57   C   0.361330070085529   0.571376581806334   0.521124997916665   1.0
C58   C   0.559772818907312   0.492305543820073   0.115912437500001   1.0
C59   C   0.469575522077030   0.410760857245492   0.125831285416666   1.0
C60   C   0.628790236671129   0.941292633725304   0.282391708333336   1.0
C61   C   0.232894854319170   0.383704832909352   0.194816589583333   1.0
C62   C   0.259165260487713   0.027332359242081   0.192424933333335   1.0
C63   C   0.371263455559195   0.992702017434588   0.171702066666668   1.0
C64   C   0.299060438703727   0.928539898179942   0.148287456250003   1.0
C65   C   0.403765066218483   0.907693973247355   0.124789558333333   1.0
C66   C   0.119408313128524   0.137268903009279   0.381312529166664   1.0
C67   C   0.183841098893666   0.205145290671545   0.357839585416670   1.0
C68   C   0.180074366698584   0.147171236098643   0.330837566666666   1.0
C69   C   0.139102954684837   0.213408333500773   0.306441624999998   1.0
C70   C   0.101360254826403   0.186566394504624   0.275252025000000   1.0
C71   C   0.015726033462968   0.196867530952048   0.563999970833336   1.0
C72   C   0.961264515843524   0.159746711758984   0.536729177083330   1.0
C73   C   0.009204154799271   0.213172006678853   0.509027004166668   1.0
C74   C   0.986534012311353   0.147385380512951   0.483266670833331   1.0
C75   C   0.037928271140750   0.201504820859668   0.456272920833335   1.0
C76   C   0.075122178074558   0.809283627047535   0.569208304166665   1.0
C77   C   0.093934368615102   0.696820836393293   0.574374993749998   1.0
C78   C   0.963729192619525   0.628294660735101   0.571562450000002   1.0
C79   C   0.000357689911219   0.521059999196147   0.574770768750000   1.0
C80   C   0.868139943153608   0.454557052580078   0.580895900000002   1.0
C81   C   0.006115436336493   0.811055871451799   0.385058404166664   1.0
C82   C   0.081622500206414   0.796287232080140   0.412987549999997   1.0
C83   C   0.060916186826660   0.806957590419287   0.466191610416665   1.0
C84   C   0.974351364710344   0.803464791641808   0.493666650000001   1.0
C85   C   0.812833319084284   0.493405817820808   0.260445912500003   1.0
C86   C   0.821895015664914   0.479131962810555   0.292314529166667   1.0
C87   C   0.790760291452060   0.579846392144013   0.306354206249999   1.0
C88   C   0.313664671541304   0.077885903723136   0.218470891666669   1.0
C89   C   0.778308547734191   0.564014444528105   0.336991629166668   1.0
C90   C   0.720106977221924   0.654671389451885   0.353835425000000   1.0
C91   C   0.971144209086866   0.794116258160720   0.438866614583333   1.0
C92   C   0.769020846576126   0.009063603261410   0.182110468749997   1.0
C93   C   0.843408660443750   0.088409994043019   0.200183391666670   1.0
C94   C   0.861876301624932   0.915809411500803   0.179233391666663   1.0
C95   C   0.741534428159774   0.169471792347615   0.208299954166669   1.0
C96   C   0.826178405086125   0.244496165489501   0.225154241666665   1.0
C97   C   0.307487126994509   0.833289946936567   0.322735468749997   1.0
C98   C   0.120936556081119   0.800149178906445   0.283664545833332   1.0
C99   C   0.052618611722330   0.840533987262440   0.259095829166668   1.0
C100   C   0.000363329263529   0.760222395915498   0.239731312499998   1.0
C101   C   0.508243796777030   0.888937898422604   0.484016737499999   1.0
C102   C   0.595449266535503   0.902399503669365   0.456116679166669   1.0
C103   C   0.501732701760311   0.918763061101657   0.431229114583331   1.0
C104   C   0.593189231523311   0.933376622995901   0.404422918750001   1.0
C105   C   0.514528897978437   0.957678307106590   0.377591610416665   1.0
C106   C   0.198122435762826   0.878024028347227   0.301154137499999   1.0
C107   C   0.510826727757639   0.244481374756333   0.432879131249997   1.0
C108   C   0.637378582807514   0.252840405973210   0.412262439583337   1.0
C109   C   0.639746185236454   0.663126401672109   0.203866641666664   1.0
C110   C   0.624582375827273   0.563371981748013   0.191420872916666   1.0
C111   C   0.588357038415353   0.266383201490157   0.335275014583331   1.0
C112   C   0.656126200611652   0.207833164901366   0.310100079166666   1.0
C113   C   0.772518461130097   0.517013408194678   0.187856197916666   1.0
C114   C   0.689800731979318   0.041417833626348   0.284395854166668   1.0
C115   C   0.566219362711863   0.212662490658594   0.461554210416665   1.0
C116   C   0.641188202061699   0.098776053169431   0.311408362500003   1.0
C117   C   0.438785045884096   0.193108890344924   0.480843702083334   1.0
C118   C   0.476872198242781   0.149925576324094   0.508197943749998   1.0
C119   C   0.479842576403968   0.698334630642350   0.209841729166669   1.0
C120   C   0.494403696177869   0.807245607272243   0.221100012500003   1.0
H121   H   0.675562508173833   0.903795127123175   0.592312495833333   1.0
H122   H   0.667759947666809   0.969471040626878   0.560666720833332   1.0
H123   H   0.442691674912602   0.048173772373396   0.568604152083331   1.0
H124   H   0.569157411456359   0.056003298296574   0.628708362499999   1.0
H125   H   0.468865189690163   0.878740215880164   0.543020883333334   1.0
H126   H   0.640488857802140   0.113734402339297   0.599666595833334   1.0
H127   H   0.591176746858260   0.441981650762642   0.455854100000003   1.0
H128   H   0.651100127862627   0.563970079712895   0.458595912500002   1.0
H129   H   0.152049820621244   0.732420462278569   0.119545779166664   1.0
H130   H   0.396059397102441   0.969175691173803   0.596604189583331   1.0
H131   H   0.321047444688929   0.502163578552832   0.531895797916668   1.0
H132   H   0.380282146697375   0.515285469531307   0.481429100000000   1.0
H133   H   0.474956508109606   0.629077329032249   0.484785397916667   1.0
H134   H   0.265245806022293   0.609686190486137   0.516816616666667   1.0
H135   H   0.322468023365687   0.410613186211101   0.358870824999997   1.0
H136   H   0.156828224639767   0.469421672955093   0.367116610416666   1.0
H137   H   0.448083530689139   0.474893402418097   0.394235454166669   1.0
H138   H   0.337502698064171   0.579883284057594   0.397283395833334   1.0
H139   H   0.429206799698555   0.817206955608476   0.574854214583333   1.0
H140   H   0.311458414856411   0.463403476483926   0.437641620833333   1.0
H141   H   0.289083950928507   0.370427879222049   0.413031260416666   1.0
H142   H   0.564615784900120   0.423210777820437   0.505587577083332   1.0
H143   H   0.073540156794657   0.532645913517953   0.408783277083330   1.0
H144   H   0.909165241115886   0.106080578215909   0.120043754166666   1.0
H145   H   0.336803138562161   0.390653457323538   0.185997962500004   1.0
H146   H   0.227901218608075   0.532830557693124   0.209995906250001   1.0
H147   H   0.652456155327222   0.532180703238588   0.512881279166663   1.0
H148   H   0.101779934564569   0.468343514903353   0.223654112500000   1.0
H149   H   0.417723614740460   0.461660739703099   0.242610454166666   1.0
H150   H   0.311253848427469   0.366610156909445   0.254166604166670   1.0
H151   H   0.126791097038271   0.873984755177297   0.464987437500000   1.0
H152   H   0.100488458312142   0.462605943610711   0.271402041666668   1.0
H153   H   0.847003166388703   0.036512442296292   0.062668799999997   1.0
H154   H   0.970380195231797   0.944453036066029   0.054129125000003   1.0
H155   H   0.095344163644874   0.998218037869904   0.103350004166664   1.0
H156   H   0.028931125772282   0.412503527567708   0.406050045833332   1.0
H157   H   0.126758864480685   0.060751441167909   0.072737535416664   1.0
H158   H   0.164017333388777   0.137527353164479   0.132099945833332   1.0
H159   H   0.180343484339694   0.220128007998902   0.105152129166669   1.0
H160   H   0.150898251964364   0.465352899546012   0.057343802083331   1.0
H161   H   0.120452217509559   0.385661655030170   0.084475039583332   1.0
H162   H   0.919044740641020   0.565195916183313   0.067989508333334   1.0
H163   H   0.904192957456296   0.499608665851426   0.099791685416669   1.0
H164   H   0.178739895765830   0.615667561502335   0.084449927083334   1.0
H165   H   0.138231265791802   0.560366583041798   0.117010435416667   1.0
H166   H   0.992625427589900   0.682517547602515   0.131585439583333   1.0
H167   H   0.251018247480438   0.309138278372394   0.202329158333335   1.0
H168   H   0.921875221968783   0.176730542179470   0.088858287500003   1.0
H169   H   0.566294697571003   0.226286491214310   0.020304204166663   1.0
H170   H   0.276492202755982   0.238219511478846   0.054133256249997   1.0
H171   H   0.342055108267388   0.130106902146956   0.039718787500000   1.0
H172   H   0.277094881629132   0.102985105938458   0.329072952083337   1.0
H173   H   0.327762987751243   0.188663569828293   0.992118677083333   1.0
H174   H   0.077317661874595   0.226589306184728   0.979410489583330   1.0
H175   H   0.098260763478763   0.123347300791991   0.999941666666665   1.0
H176   H   0.386481129392656   0.593714037353180   0.102154095833335   1.0
H177   H   0.458135353323506   0.615482909942877   0.135445912500003   1.0
H178   H   0.606405107479596   0.464887689266646   0.095393816666665   1.0
H179   H   0.660011165487091   0.506047707786742   0.127570787499998   1.0
H180   H   0.393842464391795   0.433364169390565   0.142191729166669   1.0
H181   H   0.302375150981817   0.306782660277811   0.001941681250003   1.0
H182   H   0.097528874560055   0.263776532299097   0.356262524999998   1.0
H183   H   0.481629056491585   0.281395500283850   0.150754133333336   1.0
H184   H   0.462171192397569   0.971597642346794   0.118920804166670   1.0
H185   H   0.260370607471891   0.856742474601603   0.157550016666669   1.0
H186   H   0.201889157195787   0.969596529253664   0.140841643750001   1.0
H187   H   0.342582441519269   0.883222450463244   0.106506189583335   1.0
H188   H   0.442842333868768   0.045646115086925   0.164154212500002   1.0
H189   H   0.218139962525427   0.959812366959554   0.202887535416664   1.0
H190   H   0.182259066851636   0.078441180189444   0.181983312500002   1.0
H191   H   0.442487216104887   0.947030197633659   0.183300018750003   1.0
H192   H   0.287717150579056   0.233870171965570   0.367062568750001   1.0
H193   H   0.892957441228695   0.730626109309604   0.439662456249998   1.0
H194   H   0.645331813032826   0.333691006195266   0.148714541666664   1.0
H195   H   0.190545965930220   0.569847996824109   0.263124943750000   1.0
H196   H   0.802609367058899   0.488258945434310   0.596749941666666   1.0
H197   H   0.135691351015758   0.688395398255111   0.595833302083335   1.0
H198   H   0.048270649564707   0.255712924378201   0.313418706249998   1.0
H199   H   0.019121838335870   0.131368869949071   0.275033314583332   1.0
H200   H   0.068901638847443   0.254671732082947   0.266752085416670   1.0
H201   H   0.843623784515096   0.177144062427793   0.537187577083337   1.0
H202   H   0.963508213953411   0.075627041982372   0.532833258333334   1.0
H203   H   0.944712467936405   0.283965211102718   0.508860429166667   1.0
H204   H   0.121377781589004   0.228235988119295   0.509429137500000   1.0
H205   H   0.885337772235431   0.110218018139079   0.480391660416664   1.0
H206   H   0.059743061637946   0.093497777339742   0.486010393750000   1.0
H207   H   0.974803373865207   0.266324119784677   0.452962558333333   1.0
H208   H   0.095850047986154   0.091489265187882   0.330922920833331   1.0
H209   H   0.213038780921842   0.267099470250287   0.302547931249997   1.0
H210   H   0.178018779731978   0.680102773959547   0.558833281250003   1.0
H211   H   0.883992625276917   0.651820986995887   0.585999966666670   1.0
H212   H   0.900673786370483   0.637901636987102   0.552687487500002   1.0
H213   H   0.070548222101628   0.517057706551277   0.594020843750002   1.0
H214   H   0.059323381899780   0.499793243567986   0.556666691666663   1.0
H215   H   0.515551245827631   0.319926726279597   0.039131325000000   1.0
H216   H   0.792202329801547   0.458470763280324   0.564395904166666   1.0
H217   H   0.152943055283991   0.864525523802591   0.413962525000002   1.0
H218   H   0.145291164495255   0.731482731272592   0.410760404166666   1.0
H219   H   0.906883649571853   0.857082048568380   0.437904199999998   1.0
H220   H   0.145614049701550   0.228058735618568   0.461260477083336   1.0
H221   H   0.392626333760631   0.394035403137309   0.108758291666668   1.0
H222   H   0.706170092853014   0.509902336781508   0.254075049999997   1.0
H223   H   0.806817432383092   0.386185947015015   0.483208339583335   1.0
H224   H   0.597763079875008   0.344405655506719   0.333135445833335   1.0
H225   H   0.933186277535860   0.459991949203825   0.298997879166670   1.0
H226   H   0.739521739014393   0.425750973631580   0.297468820833330   1.0
H227   H   0.863479879436674   0.637923752936096   0.300168672916669   1.0
H228   H   0.135325449604899   0.747661770062642   0.465827147916670   1.0
H229   H   0.879870570837625   0.536087014880103   0.346147856249999   1.0
H230   H   0.701811357810534   0.507214455167393   0.341629187499997   1.0
H231   H   0.610925274363098   0.674956049258860   0.347589652083336   1.0
H232   H   0.708795921654847   0.624639474032961   0.374402045833335   1.0
H233   H   0.070419108915182   0.691917771114639   0.238364537499997   1.0
H234   H   0.663842545753440   0.989297815370314   0.190658410416667   1.0
H235   H   0.937286570962982   0.114732780520264   0.189862568750001   1.0
H236   H   0.650562118584986   0.140658321724672   0.219312510416664   1.0
H237   H   0.717448711382168   0.202952134344514   0.188562552083333   1.0
H238   H   0.883163941826339   0.205270853141229   0.241477012499999   1.0
H239   H   0.917688713176432   0.264758635504578   0.212568760416666   1.0
H240   H   0.246724182033468   0.935244781944903   0.288987479166664   1.0
H241   H   0.129212574653614   0.930459739775692   0.312014579166664   1.0
H242   H   0.208776937270343   0.754588204684929   0.275968710416670   1.0
H243   H   0.045709285878054   0.758391136264365   0.296260356250002   1.0
H244   H   0.136789141345332   0.885201440223092   0.248106320833337   1.0
H245   H   0.930108245860950   0.727650210842526   0.492866675000002   1.0
H246   H   0.971467105055282   0.895583774324990   0.265656312499999   1.0
H247   H   0.754427289764301   0.040117489668326   0.160697937499997   1.0
H248   H   0.908982134359675   0.734739188459571   0.250422954166666   1.0
H249   H   0.433124180087681   0.855634735083534   0.428116639583337   1.0
H250   H   0.434351094365823   0.981559130984543   0.434081237500003   1.0
H251   H   0.676294300233437   0.989895979793808   0.409183343750001   1.0
H252   H   0.417153157662774   0.998796486238703   0.382058302083337   1.0
H253   H   0.668567074585560   0.961532921332775   0.459981283333334   1.0
H254   H   0.585461995113306   0.996261289591992   0.362822850000001   1.0
H255   H   0.430767264446622   0.190576093592512   0.425822893750002   1.0
H256   H   0.449891556546476   0.315119509087076   0.437608400000002   1.0
H257   H   0.617081154756825   0.143641530638995   0.457516670833336   1.0
H258   H   0.658892023106020   0.863292288273442   0.402839660416667   1.0
H259   H   0.881366591994755   0.045949565106291   0.218304158333332   1.0
H260   H   0.381681276463525   0.144084632353660   0.522854168750001   1.0
H261   H   0.382456073965571   0.262159431830859   0.488581181249998   1.0
H262   H   0.569867754605347   0.187954700126895   0.518393674999999   1.0
H263   H   0.659849819743052   0.075768805584644   0.264777025000001   1.0
H264   H   0.807010999922596   0.030695859099062   0.286583264583335   1.0
H265   H   0.530446045216927   0.079774834680329   0.314477125000003   1.0
H266   H   0.711604846450768   0.073193970068417   0.327970822916669   1.0
H267   H   0.660818496886172   0.836214155372595   0.452812512500003   1.0
H268   H   0.608363899914323   0.244835879757794   0.291318737499999   1.0
H269   H   0.766341024204529   0.230251884561305   0.307312489583332   1.0
H270   H   0.645364034828297   0.259501065224470   0.470189572916667   1.0
H271   H   0.357143561293171   0.149925576324094   0.470558324999999   1.0
H272   H   0.474859724339851   0.256857489351248   0.340710481249999   1.0
H273   H   0.683655527611343   0.599119352510584   0.297835350000000   1.0
H274   H   0.848574307162522   0.514340265623694   0.204677106250003   1.0
H275   H   0.547503966703196   0.519272971443009   0.206345879166669   1.0
H276   H   0.547848408441325   0.561090236092078   0.173366706250000   1.0
H277   H   0.703726951084604   0.656591245816216   0.223183314583331   1.0
H278   H   0.696333491149105   0.712800447659298   0.188975016666667   1.0
H279   H   0.439861290443950   0.654708296134046   0.227525075000003   1.0
H280   H   0.397899752376468   0.694612963175999   0.194627127083336   1.0
H281   H   0.562581754465356   0.845304238698482   0.207370758333333   1.0
H282   H   0.390011073363326   0.842520309622401   0.222087543750000   1.0
H283   H   0.484836212115070   0.249864581349037   0.616958300000000   1.0
H284   H   0.647742507001190   0.733380464303636   0.574270885416666   1.0
H285   H   0.551507476360570   0.127407205668604   0.068272908333334   1.0
H286   H   0.632707843064836   0.652182817213173   0.087137539583331   1.0
H287   H   0.855031731473154   0.515411032000998   0.488116741666666   1.0
H288   H   0.414301238186525   0.573990642671831   0.341272989583331   1.0
H289   H   0.257464791284988   0.631211403653793   0.354710420833335   1.0
H290   H   0.127974898252738   0.460191310269259   0.160024960416664   1.0
H291   H   0.018502628842199   0.390380216435169   0.180174987500003   1.0
H292   H   0.186176468765005   0.072177847438219   0.382133324999998   1.0
H293   H   0.768192163125541   0.951312989924112   0.104550043750002   1.0
H294   H   0.864104104079544   0.406212156666783   0.046179135416665   1.0
H295   H   0.915880687319095   0.317814767607047   0.068881193750002   1.0
H296   H   0.694783691664668   0.217403249239780   0.065056325000000   1.0
H297   H   0.706977209009636   0.790756420911656   0.541791597916664   1.0
H298   H   0.671193107867722   0.673936899069702   0.122697991666669   1.0
H299   H   0.761788732384666   0.866526636895721   0.076958339583335   1.0
H300   H   0.815039565007055   0.861601315366556   0.166118783333331   1.0
H301   H   0.761056735844733   0.446456545361315   0.179670810416667   1.0
H302   H   0.385006772388593   0.029876919168700   0.228824933333335   1.0
H303   H   0.004458080197445   0.117116421995966   0.375220775000003   1.0
H304   H   0.980927021701348   0.154481675961534   0.581729095833332   1.0
H305   H   0.178374005117085   0.849771675164099   0.571750006249999   1.0
H306   H   0.996278845394706   0.834729942589874   0.584604104166665   1.0
H307   H   0.086960480796542   0.839204696887037   0.368631204166668   1.0
H308   H   0.933788956409010   0.873475180082714   0.389768760416665   1.0
H309   H   0.894248799097774   0.546801597732951   0.253468672916668   1.0
H310   H   0.367195383927537   0.143087738415005   0.210108281250001   1.0
H311   H   0.132645734854528   0.182098891580388   0.563562552083333   1.0
H312   H   0.374298384932544   0.776261022428372   0.314870835416670   1.0
H313   H   0.971919103448023   0.933657189100103   0.170935472916668   1.0
H314   H   0.906797434206624   0.613607292860820   0.176072916666669   1.0
H315   H   0.516261588976626   0.940413762896100   0.289883295833334   1.0
H316   H   0.718966073828682   0.302448111497704   0.418102106250004   1.0
H317   H   0.672893577070447   0.886707909256316   0.297416687499997   1.0
H318   H   0.414570248206409   0.837668794073274   0.483537514583332   1.0
H319   H   0.574237154911458   0.857237118661502   0.500381310416664   1.0
H320   H   0.232722735690274   0.782478587349260   0.335479100000001   1.0
H321   H   0.696408826008245   0.181294040875635   0.413189570833332   1.0
H322   H   0.891999644591657   0.853500808147793   0.493233362500000   1.0
O323   O   0.436094558248868   0.611177868786200   0.568687439583336   1.0
O324   O   0.646892277780893   0.156098850272670   0.121627012499999   1.0
O325   O   0.118741072281082   0.465567051344614   0.469274997916663   1.0
O326   O   0.418896643070070   0.463329604045278   0.300941627083333   1.0
O327   O   0.921024992748485   0.303090500434891   0.137945812500000   1.0
O328   O   0.581942824027500   0.266501372285404   0.384343783333335   1.0
O329   O   0.953515938144143   0.741828151308034   0.068335374999997   1.0
O330   O   0.888727819372662   0.200633489390704   0.024331252083336   1.0
O331   O   0.808098114226418   0.818521314949194   0.342925072916664   1.0
O332   O   0.010361481191815   0.047055052415871   0.430493672916668   1.0
O333   O   0.813296197983107   0.294458302172551   0.599458377083330   1.0
O334   O   0.197379860056245   0.818233423629174   0.517279147916668   1.0
O335   O   0.624119496928444   0.340698704930638   0.237458387499999   1.0
O336   O   0.994567700166229   0.734997638614772   0.187781174999998   1.0
O337   O   0.427097423642522   0.790313326581284   0.372060458333337   1.0
O338   O   0.795678592304014   0.228605210011018   0.363397916666663   1.0
O339   O   0.666985042543530   0.029210162074015   0.509981314583335   1.0
O340   O   0.555790865781780   0.804897314393486   0.152074972916665   1.0
O341   O   0.336361902292154   0.120540561643644   0.273129145833330   1.0
O342   O   0.932056265410822   0.729932030341367   0.375143687500000   1.0
O343   O   0.194323471010158   0.112106173745808   0.235322952083337   1.0
O344   O   0.568640840327205   0.741244770233422   0.267170906250001   1.0
O345   O   0.891116978333436   0.464296990360495   0.447577158333331   1.0
O346   O   0.518220284552250   0.764970531402540   0.106324991666668   1.0
O347   O   0.233691305212162   0.548559117862659   0.318177064583331   1.0
O348   O   0.154449752466874   0.315747181134000   0.149829229166670   1.0
O349   O   0.918205381164682   0.844218755430916   0.104983329166664   1.0
O350   O   0.527647871781618   0.706457394111624   0.534875075000002   1.0
O351   O   0.040737195936671   0.324696977715639   0.033704122916667   1.0
O352   O   0.516971824504388   0.255033562300234   0.091487566666665   1.0
O353   O   0.101112704479256   0.183110576252204   0.407216708333337   1.0
O354   O   0.008224801630398   0.300306645201715   0.568250020833332   1.0
O355   O   0.995832583213378   0.824864508798385   0.543749968749999   1.0
O356   O   0.848682079059586   0.406788138682671   0.246608258333332   1.0
O357   O   0.902869367029624   0.877492344687944   0.205931187499999   1.0
O358   O   0.384856102670305   0.905404976218485   0.339116733333334   1.0
O359   O   0.853567953635739   0.563194729247286   0.167539595833333   1.0
O360   O   0.451893365185775   0.979484071609861   0.494633356249999   1.0
O361   O   0.310618947758847   0.167256520071596   0.605354150000004   1.0
O362   O   0.634128314120360   0.901764432563709   0.255054156249997   1.0


# Number_of_total_atoms: 362
# Number_of_atom_type: 3
# Name_of_each_atom: C H O
# Number_of_each_atom: 120 202 40
# Created_by: Lihua Chen (lihua.chen@mse.gatech.edu)
# Tool: VASP
# K-points: 2 1 1
# Pseudopotential: PBE-HSE06
# Material_class: MC_Pol
# Geometry_class: GC_PD
# Bandgap_(eV): 5.46
