#======================================================================

# Note: Disordered slab of polycaprolactone
# Common_name: Disordered slab-5

#----------------------------------------------------------------------

data_1
_audit_creation_method   'vasp2cif'
_cell_length_a    8.9267808
_cell_length_b    14.2966004
_cell_length_c    48.0
_cell_angle_alpha    90.0
_cell_angle_beta    90.0
_cell_angle_gamma    90.0

_symmetry_space_group_name_H-M    'P 1'
loop_
_atom_site_label
_atom_site_type_symbol
_atom_site_fract_x
_atom_site_fract_y
_atom_site_fract_z
_atom_site_occupancy
C1   C   0.963627436667878   0.191318238145619   0.576000054166670   1.0
C2   C   0.822557511437942   0.463291986534088   0.313518683333335   1.0
C3   C   0.861093228591429   0.405096347240708   0.288789591666664   1.0
C4   C   0.743268021098942   0.406012628009101   0.266927083333336   1.0
C5   C   0.864801183423253   0.999223535687548   0.445183277083331   1.0
C6   C   0.766759098643938   0.992928318819068   0.419910431250003   1.0
C7   C   0.809126051353246   0.936502337996380   0.394358316666668   1.0
C8   C   0.838733521943318   0.830498179133549   0.400064627083332   1.0
C9   C   0.892313878705302   0.783724737805500   0.373279095833333   1.0
C10   C   0.013150384514873   0.615118248671202   0.537000020833332   1.0
C11   C   0.042836270831252   0.698585672157421   0.557708264583333   1.0
C12   C   0.928620404793627   0.782563643591800   0.551041604166670   1.0
C13   C   0.957846920583059   0.832246818621300   0.522979100000001   1.0
C14   C   0.954531246023201   0.461305535265573   0.336660385416664   1.0
C15   C   0.880977182726390   0.931899866208752   0.519058387500003   1.0
C16   C   0.113937019714882   0.261915462084261   0.446420829166669   1.0
C17   C   0.177532117737222   0.330442249753304   0.469962437500001   1.0
C18   C   0.116782300737128   0.310003817411023   0.499885400000004   1.0
C19   C   0.149638557272517   0.377005760054679   0.524416606250000   1.0
C20   C   0.314121133118896   0.188443463804162   0.241749922916668   1.0
C21   C   0.320293514992549   0.223633605930537   0.273095766666664   1.0
C22   C   0.208808846297650   0.180427558148722   0.293985366666668   1.0
C23   C   0.204663947836607   0.232006253738476   0.324072837499997   1.0
C24   C   0.097816897217861   0.191828877024498   0.347541650000004   1.0
C25   C   0.321458638258484   0.736496761845565   0.122208279166664   1.0
C26   C   0.277736180102011   0.823104841064172   0.140347958333336   1.0
C27   C   0.394855758080226   0.855280259494421   0.162214597916666   1.0
C28   C   0.135254895023302   0.299987450163329   0.416289650000003   1.0
C29   C   0.915995316027029   0.526055208201804   0.361241658333334   1.0
C30   C   0.871959419010267   0.931319385551269   0.186220804166666   1.0
C31   C   0.820361882303644   0.023212581363048   0.197172960416665   1.0
C32   C   0.618956567187134   0.847956833150349   0.262406191666663   1.0
C33   C   0.644094565422733   0.746716044466069   0.258004189583332   1.0
C34   C   0.638459768161887   0.728760691947436   0.227058412500000   1.0
C35   C   0.668459317383487   0.626512635829144   0.220604102083335   1.0
C36   C   0.624199285816452   0.590664896810011   0.191020806250002   1.0
C37   C   0.552056817615593   0.323321675830009   0.370595772916666   1.0
C38   C   0.627302352937804   0.269847452685326   0.345781327083337   1.0
C39   C   0.632657038022039   0.162178429495725   0.348212560416670   1.0
C40   C   0.682406148025947   0.107959959487992   0.321627139583335   1.0
C41   C   0.494970191269850   0.194899502122198   0.540770850000001   1.0
C42   C   0.533830784777422   0.238182533240561   0.511118731250001   1.0
C43   C   0.636297689756198   0.183008563350484   0.490908306249999   1.0
C44   C   0.587422354988263   0.190401964371894   0.460129102083336   1.0
C45   C   0.606342904712079   0.284564203109433   0.446631272916669   1.0
C46   C   0.273905045366412   0.960102382101972   0.406558356250002   1.0
C47   C   0.294158763257634   0.910272325999962   0.434845766666669   1.0
C48   C   0.324528053831010   0.980093211530203   0.458764552083331   1.0
C49   C   0.326275514684980   0.926520930108673   0.486354191666663   1.0
C50   C   0.281948292042749   0.982352426944800   0.512085437499998   1.0
C51   C   0.083836515846791   0.783291145215195   0.236635366666668   1.0
C52   C   0.059874955146206   0.854433890451325   0.261050066666670   1.0
C53   C   0.129015210051982   0.820090117368039   0.289297900000001   1.0
C54   C   0.124881525039797   0.884671890248818   0.314072927083331   1.0
C55   C   0.235660564220417   0.844578421594548   0.334762572916667   1.0
C56   C   0.752610560348920   0.247240658695333   0.207433383333331   1.0
C57   C   0.857374161130963   0.178021391714914   0.222064654166665   1.0
C58   C   0.936753179824912   0.098377254777297   0.206466675000001   1.0
C59   C   0.367645400232078   0.954800429338434   0.172702154166665   1.0
C60   C   0.405206589143532   0.963935468183053   0.203810375000003   1.0
C61   C   0.686338237408044   0.004007987801074   0.322683335416670   1.0
C62   C   0.395023702161481   0.247793251604065   0.107295831249999   1.0
C63   C   0.798326939987149   0.622231813935294   0.462531247916665   1.0
C64   C   0.923792202895811   0.554733347656551   0.454422952083334   1.0
C65   C   0.977742200189347   0.258551053857531   0.600104172916666   1.0
C66   C   0.913497349458837   0.354937555644348   0.596770764583333   1.0
C67   C   0.739033594282944   0.362841525597929   0.600208283333330   1.0
C68   C   0.681162821876391   0.455450982598634   0.587999979166668   1.0
C69   C   0.515694291496438   0.463194061155967   0.580604237499998   1.0
C70   C   0.655812003359600   0.877439317671630   0.292902152083336   1.0
C71   C   0.633127521177620   0.327343604008128   0.396812439583336   1.0
C72   C   0.389411443820826   0.107278685637738   0.540354095833337   1.0
C73   C   0.315543829641250   0.900871538663132   0.381854216666667   1.0
C74   C   0.015749316931810   0.808143137301371   0.209187508333336   1.0
C75   C   0.693227462244842   0.581215139789457   0.484481174999999   1.0
C76   C   0.694975046323528   0.328148012026695   0.225018818750001   1.0
C77   C   0.815376848953207   0.948673049573380   0.470118681250000   1.0
C78   C   0.102297795863876   0.526880565256619   0.543145814583333   1.0
C79   C   0.078224257506136   0.232712743373590   0.394241649999998   1.0
C80   C   0.372932883038864   0.084376723574088   0.238185406249997   1.0
C81   C   0.327082121250250   0.648370972164827   0.138775031249999   1.0
C82   C   0.413417869519101   0.064241202405015   0.099029222916670   1.0
C83   C   0.907873877669317   0.827483448442749   0.099410374999998   1.0
C84   C   0.940774797561964   0.369234667844530   0.148637454166668   1.0
C85   C   0.380998556612930   0.561881893264641   0.297908306250001   1.0
C86   C   0.151397242777598   0.637368293514029   0.445972918750002   1.0
C87   C   0.518326864259961   0.574877898944422   0.542125066666664   1.0
C88   C   0.407189409198892   0.144544202270630   0.119329135416670   1.0
C89   C   0.957746279599469   0.626890320023215   0.356822966666670   1.0
C90   C   0.560850547601660   0.640075237746728   0.492272854166664   1.0
C91   C   0.098321043124528   0.353713495412521   0.031443756249999   1.0
C92   C   0.504122471563321   0.624491162248617   0.336604118750003   1.0
C93   C   0.410550049576663   0.323531529915321   0.130604108333337   1.0
C94   C   0.455247035975162   0.584502557684971   0.512166660416668   1.0
C95   C   0.397533095021217   0.419869069013075   0.118179162499999   1.0
C96   C   0.434814171756074   0.493089315135364   0.139037450000004   1.0
C97   C   0.028575889306033   0.289299622587201   0.010422866666666   1.0
C98   C   0.143174849773395   0.139336705528962   0.031714597916668   1.0
C99   C   0.288714448998235   0.078423581035388   0.027260462500003   1.0
C100   C   0.328639211125250   0.018477161885286   0.053885460416666   1.0
C101   C   0.861877385854484   0.759809975523972   0.120895862499999   1.0
C102   C   0.841803038336060   0.653504961920881   0.112333297916663   1.0
C103   C   0.976196323763212   0.599625026939968   0.099156220833336   1.0
C104   C   0.928071505911738   0.538330846821459   0.073835372916669   1.0
C105   C   0.068601494057077   0.482835080149542   0.062762579166666   1.0
C106   C   0.097245649853974   0.195515068043726   0.006858350000002   1.0
C107   C   0.829424522219703   0.252584572483400   0.112520854166668   1.0
C108   C   0.964915627815124   0.285872185390311   0.131112575000003   1.0
C109   C   0.358157142158120   0.567820367980630   0.414377054166664   1.0
C110   C   0.277299348495262   0.651182780488149   0.425968806249998   1.0
C111   C   0.145023164453640   0.434627857403079   0.210545858333333   1.0
C112   C   0.153839343741922   0.520333533278304   0.230449993750000   1.0
C113   C   0.050106573693398   0.458108964142269   0.183931191666666   1.0
C114   C   0.285297707769409   0.585013266510551   0.273395856249998   1.0
C115   C   0.868789261633935   0.166592122138354   0.094795862500000   1.0
C116   C   0.272605640770301   0.507470342389929   0.252039591666666   1.0
C117   C   0.890599845355226   0.075578883774355   0.112304210416667   1.0
C118   C   0.931241663288070   0.990333310288229   0.094193777083333   1.0
C119   C   0.467916776896772   0.589112108078503   0.389281272916669   1.0
C120   C   0.396748948960415   0.612984846383483   0.361581325000003   1.0
H121   H   0.242449148073625   0.043832854137825   0.457993825000003   1.0
H122   H   0.441793126588251   0.009446357611004   0.454874993750003   1.0
H123   H   0.391618286403983   0.862491750136627   0.433302085416663   1.0
H124   H   0.168335073266277   0.996502714029830   0.403995831250000   1.0
H125   H   0.426535677900816   0.898717180344498   0.492870808333336   1.0
H126   H   0.354269917773721   0.017592371120621   0.403133391666664   1.0
H127   H   0.652563430256961   0.140404071166458   0.449222883333334   1.0
H128   H   0.466494080374417   0.175139608714254   0.456591608333334   1.0
H129   H   0.612896140566150   0.111267724878147   0.496062437500001   1.0
H130   H   0.192117476436749   0.857616451250884   0.437364579166669   1.0
H131   H   0.424317610666549   0.245387085170265   0.551812489583334   1.0
H132   H   0.410090779869940   0.240266972839223   0.503604093749999   1.0
H133   H   0.573408333270599   0.308688833465609   0.512683391666670   1.0
H134   H   0.598904657768678   0.180567444551365   0.552687487500002   1.0
H135   H   0.591163860548697   0.123028597763707   0.307824929166664   1.0
H136   H   0.781321929625513   0.141119625893722   0.312033337499997   1.0
H137   H   0.524241672877196   0.141956188409658   0.354585489583336   1.0
H138   H   0.708809910511079   0.144976458878993   0.364335379166668   1.0
H139   H   0.246481990461781   0.868521204523560   0.487045764583335   1.0
H140   H   0.573161872642821   0.289705264476723   0.325958410416668   1.0
H141   H   0.738842999259042   0.295370968051955   0.342983406249999   1.0
H142   H   0.752218492919646   0.195025448147795   0.496883391666664   1.0
H143   H   0.056088584588075   0.715177008094876   0.243658383333333   1.0
H144   H   0.749194043165033   0.051969033141610   0.180895806250000   1.0
H145   H   0.954329549572897   0.887301851144976   0.265556177083333   1.0
H146   H   0.863580082530987   0.074334476047888   0.451672872916667   1.0
H147   H   0.544136851663254   0.396709752061057   0.363218785416670   1.0
H148   H   0.959829729436173   0.437957306269816   0.279145877083330   1.0
H149   H   0.874569564876062   0.332134917892787   0.294549941666666   1.0
H150   H   0.805530051774099   0.536274420875607   0.306652068749997   1.0
H151   H   0.715105573108730   0.440314510014559   0.323102156250002   1.0
H152   H   0.055819685860328   0.488710644804762   0.328656197916665   1.0
H153   H   0.968970785078533   0.385182494154343   0.346989631249997   1.0
H154   H   0.795884962247534   0.529237769001362   0.365272839583334   1.0
H155   H   0.965789515073567   0.499594323137131   0.381508349999997   1.0
H156   H   0.208483981145811   0.794412698280354   0.233585358333336   1.0
H157   H   0.743906459538024   0.002619559822065   0.213383356249999   1.0
H158   H   0.996595659658183   0.131734170873237   0.190170764583336   1.0
H159   H   0.950912819546325   0.219415826996183   0.232316652083334   1.0
H160   H   0.786687917776582   0.147233666823340   0.238350075000000   1.0
H161   H   0.811467186468832   0.280234495467887   0.190483410416668   1.0
H162   H   0.660360093080811   0.213064715720812   0.198329131249999   1.0
H163   H   0.158017792931581   0.951862681984174   0.306583404166666   1.0
H164   H   0.017227991080503   0.884490049816321   0.323537508333331   1.0
H165   H   0.244331125504949   0.793223590413845   0.285497983333336   1.0
H166   H   0.065532078484551   0.757459773443763   0.296252091666666   1.0
H167   H   0.122316244171692   0.916175834361290   0.254687468749999   1.0
H168   H   0.007123519824752   0.073757464746656   0.223387560416668   1.0
H169   H   0.436550519981402   0.296441138552069   0.372795900000000   1.0
H170   H   0.115796559046238   0.117296451819414   0.350256285416670   1.0
H171   H   0.670733373446339   0.524320509091098   0.184056283333334   1.0
H172   H   0.357193726544736   0.910943793323064   0.218943756249999   1.0
H173   H   0.977014031754877   0.205846153467363   0.342770895833333   1.0
H174   H   0.264719225546571   0.380810825488275   0.525249958333333   1.0
H175   H   0.129608884313590   0.341899532982680   0.544041633333336   1.0
H176   H   0.930334225301017   0.979820384432095   0.534520785416667   1.0
H177   H   0.761594784538680   0.923904972541585   0.524645806250000   1.0
H178   H   0.001791272840485   0.809038469033517   0.367318789583337   1.0
H179   H   0.810817422558422   0.784018513939863   0.357006231249997   1.0
H180   H   0.728111415035528   0.477155436197265   0.259812514583331   1.0
H181   H   0.630819936790651   0.388232177210462   0.273502031249997   1.0
H182   H   0.520376886592757   0.960536107591004   0.205343724999999   1.0
H183   H   0.937447797530773   0.932991048697147   0.166977087500001   1.0
H184   H   0.349374614418672   0.838423168070079   0.324952127083335   1.0
H185   H   0.216527104597439   0.770735670838221   0.339885393750002   1.0
H186   H   0.267956697222807   0.942007213127397   0.530708312500003   1.0
H187   H   0.170396309047938   0.003608578162400   0.507395904166664   1.0
H188   H   0.729780572185668   0.297042701144534   0.445137500000001   1.0
H189   H   0.542422930335647   0.334408206583156   0.458164533333331   1.0
H190   H   0.596350500731461   0.977575046442510   0.333366712500002   1.0
H191   H   0.786385367500003   0.967992418673184   0.330110391666665   1.0
H192   H   0.770231817499095   0.663780145942944   0.177341620833332   1.0
H193   H   0.978313548373450   0.980694641223934   0.440443674999997   1.0
H194   H   0.780907625736702   0.882398531611756   0.183764616666664   1.0
H195   H   0.505746752513517   0.579172724167350   0.187860489583336   1.0
H196   H   0.360632883469030   0.471909447787319   0.156793754166664   1.0
H197   H   0.239783024581492   0.969978932893724   0.060681183333337   1.0
H198   H   0.785690951434589   0.613516497250636   0.222843806249998   1.0
H199   H   0.614587735816251   0.580627587520738   0.237145900000002   1.0
H200   H   0.703589618779482   0.782108976061188   0.215004127083333   1.0
H201   H   0.521071403478395   0.736112131944317   0.220920881250002   1.0
H202   H   0.742125335932968   0.727907384191838   0.267645837499998   1.0
H203   H   0.564289715728208   0.702642608658209   0.269775074999998   1.0
H204   H   0.684187260428757   0.887399776523097   0.247583391666666   1.0
H205   H   0.503987966188213   0.868451166894197   0.257187524999999   1.0
H206   H   0.986199952394934   0.114601447488177   0.580062550000001   1.0
H207   H   0.459627080794903   0.520305582577521   0.594604175000001   1.0
H208   H   0.553849154669507   0.481799938956115   0.143024920833334   1.0
H209   H   0.453913968627973   0.391463763651110   0.583979129166664   1.0
H210   H   0.974325470162775   0.526104170890868   0.474779129166670   1.0
H211   H   0.567795974109728   0.561098497234347   0.336533387499998   1.0
H212   H   0.579334355336698   0.681385827920323   0.341120879166667   1.0
H213   H   0.098287391575695   0.513492732160294   0.171441714583331   1.0
H214   H   0.944057134235891   0.478281571050978   0.191672960416668   1.0
H215   H   0.048952787101037   0.992040058698151   0.087333360416665   1.0
H216   H   0.858158318394018   0.995963991551449   0.076541741666666   1.0
H217   H   0.137965782692902   0.447120358767250   0.077925045833332   1.0
H218   H   0.145168883277606   0.536330322277173   0.053010464583331   1.0
H219   H   0.425538711558822   0.973035547667685   0.053612549999997   1.0
H220   H   0.873852497867986   0.495271617160121   0.443668683333335   1.0
H221   H   0.740926673140670   0.064375486077097   0.412870885416666   1.0
H222   H   0.488327214218145   0.256627512649793   0.092983406249999   1.0
H223   H   0.724269066851065   0.937369656075717   0.377562522916669   1.0
H224   H   0.198973273769646   0.577374982097140   0.218239625000002   1.0
H225   H   0.044393472728714   0.539338044308771   0.237939516666664   1.0
H226   H   0.381625882423371   0.500503665193023   0.240202110416668   1.0
H227   H   0.249114462405082   0.444014711357532   0.264904181250003   1.0
H228   H   0.656484205369978   0.962305696115003   0.425581295833332   1.0
H229   H   0.179951769399331   0.608983930193645   0.280583381249997   1.0
H230   H   0.980912357565671   0.078600553177665   0.127987543750002   1.0
H231   H   0.780313839452631   0.067343324501117   0.123054187500003   1.0
H232   H   0.971973009575862   0.182246172313803   0.084624927083333   1.0
H233   H   0.773939761128673   0.157338145927334   0.080100062500001   1.0
H234   H   0.729814122914277   0.241351153663075   0.124241670833335   1.0
H235   H   0.797139602666171   0.311696555497207   0.100122929166666   1.0
H236   H   0.982693694013413   0.230334527640572   0.147985458333331   1.0
H237   H   0.069318460244929   0.287075296585890   0.120433331249998   1.0
H238   H   0.843438443117144   0.487437628878538   0.080231191666670   1.0
H239   H   0.865215700154749   0.575052800664416   0.057622910416669   1.0
H240   H   0.040035753986473   0.562602323276799   0.114189625000002   1.0
H241   H   0.051999764573587   0.648426873566393   0.090495904166666   1.0
H242   H   0.796422535658095   0.618965345076020   0.129852135416670   1.0
H243   H   0.741822998499082   0.659261589209699   0.098416645833332   1.0
H244   H   0.747704155567483   0.780094574091891   0.128739516666670   1.0
H245   H   0.103138031573486   0.378551547121653   0.222114562500003   1.0
H246   H   0.252744001510600   0.408726580901010   0.202770868750001   1.0
H247   H   0.246896395170808   0.693591491862641   0.407068729166667   1.0
H248   H   0.365147332843662   0.691304262795228   0.436712425000003   1.0
H249   H   0.708843450037442   0.510338185013552   0.602499962499998   1.0
H250   H   0.730799976627630   0.479358743215627   0.567187468749999   1.0
H251   H   0.718757550314216   0.362023177202325   0.622999987500002   1.0
H252   H   0.694202214531806   0.300658917486423   0.588666597916664   1.0
H253   H   0.960423515720244   0.396045223450464   0.614041645833332   1.0
H254   H   0.948213145325582   0.379782616012683   0.576395829166664   1.0
H255   H   0.088283863764190   0.270323062257511   0.606520812500001   1.0
H256   H   0.934736809040949   0.238007694472600   0.618395806250000   1.0
H257   H   0.739705572248397   0.637781069966813   0.442729156250003   1.0
H258   H   0.854987936972755   0.687226370263524   0.467962425000003   1.0
H259   H   0.943328954599174   0.757389861718451   0.137699922916667   1.0
H260   H   0.657716407688646   0.510345123726054   0.479120891666668   1.0
H261   H   0.503002213295076   0.663815098308270   0.474354108333337   1.0
H262   H   0.598971860046120   0.706979324958958   0.500535487500002   1.0
H263   H   0.351110973846247   0.626267822383845   0.509093762500001   1.0
H264   H   0.415792667385759   0.512303687245819   0.505887508333331   1.0
H265   H   0.313818694864786   0.561560103477468   0.357533295833335   1.0
H266   H   0.321604245059987   0.670145400440795   0.362125079166667   1.0
H267   H   0.533405054597061   0.530021165031656   0.388285479166669   1.0
H268   H   0.536620088173329   0.648147107755769   0.394118787499998   1.0
H269   H   0.415624723304511   0.534994396290180   0.431310495833337   1.0
H270   H   0.260932854988439   0.524922064688887   0.406899929166670   1.0
H271   H   0.748028931101345   0.573031334078557   0.503074964583334   1.0
H272   H   0.270757214067587   0.028270392169595   0.008999983333332   1.0
H273   H   0.333333019670427   0.644579784156242   0.262297947916664   1.0
H274   H   0.045916911054881   0.100474970259363   0.037547906249998   1.0
H275   H   0.300543954210234   0.297896071852158   0.272541681249997   1.0
H276   H   0.199634139106450   0.172474625506077   0.234885374999998   1.0
H277   H   0.366850141542628   0.229369284183115   0.226283391666669   1.0
H278   H   0.995856154550140   0.311444740387373   0.496460437499998   1.0
H279   H   0.127323614801881   0.235867290520339   0.504554112500003   1.0
H280   H   0.128679109046793   0.393366299865249   0.465608279166666   1.0
H281   H   0.296175122839358   0.342452055944712   0.466814518749999   1.0
H282   H   0.990411952313202   0.250968810739089   0.446791650000001   1.0
H283   H   0.162297095947508   0.190387954048155   0.450699966666669   1.0
H284   H   0.083007605608508   0.364093606477240   0.410600027083333   1.0
H285   H   0.434937351659848   0.214169838586244   0.280858358333333   1.0
H286   H   0.252452776705347   0.317348185796675   0.410879135416664   1.0
H287   H   0.906204720519185   0.787375976459408   0.507366658333332   1.0
H288   H   0.941357247172462   0.834862783183056   0.567291737500000   1.0
H289   H   0.812060961550664   0.753829609730154   0.549083391666670   1.0
H290   H   0.998847266418821   0.678336144864204   0.578125000000000   1.0
H291   H   0.161143186130438   0.715540688959877   0.559145770833332   1.0
H292   H   0.391002185244652   0.114961658996919   0.025385379166664   1.0
H293   H   0.025831350087593   0.626169897005724   0.514527162500002   1.0
H294   H   0.912041001387642   0.825154195398788   0.417508283333334   1.0
H295   H   0.733432336548468   0.790145893704910   0.404620806250001   1.0
H296   H   0.917799090574732   0.973735028643596   0.384085337499997   1.0
H297   H   0.069956999504235   0.842906625549944   0.515027045833335   1.0
H298   H   0.096495054521782   0.182085280917555   0.285631181249997   1.0
H299   H   0.901421383619052   0.587657237730447   0.541854222916669   1.0
H300   H   0.182427521912487   0.302078828474492   0.322020850000001   1.0
H301   H   0.231963822837457   0.108607679906896   0.295027097916666   1.0
H302   H   0.157524860473778   0.181567703326167   0.048891704166664   1.0
H303   H   0.032138125313885   0.150049678943255   0.992493789583335   1.0
H304   H   0.039699664183530   0.328637638917293   0.990900039583330   1.0
H305   H   0.909856697724670   0.274344997430298   0.013575077083331   1.0
H306   H   0.467177383811197   0.433984340780761   0.099589508333331   1.0
H307   H   0.284849651511550   0.429752551522668   0.110014597916667   1.0
H308   H   0.509589111900226   0.311185916618328   0.143952054166668   1.0
H309   H   0.323071716962069   0.315305770174568   0.144662541666669   1.0
H310   H   0.285476977321991   0.249101233884943   0.096391679166665   1.0
H311   H   0.206433947610769   0.209924045999074   0.995700041666666   1.0
H312   H   0.308575976235467   0.128791499271394   0.131385485416665   1.0
H313   H   0.497882786592001   0.143622318771669   0.134035429166666   1.0
H314   H   0.436875295515264   0.744197879378376   0.114177068750003   1.0
H315   H   0.172748769634850   0.803456750459361   0.151600043750001   1.0
H316   H   0.241463294360273   0.877264548850370   0.124927045833331   1.0
H317   H   0.261604944976355   0.727921254622181   0.102141699999997   1.0
H318   H   0.498062044942337   0.852839070748594   0.148754120833331   1.0
H319   H   0.257807461789582   0.983730446855041   0.171910445833333   1.0
H320   H   0.441087407456003   0.003440713080295   0.161149979166666   1.0
H321   H   0.420262453403133   0.805471278332718   0.178804239583336   1.0
H322   H   0.317750683426660   0.229565134939349   0.329672972916669   1.0
O323   O   0.041906506766694   0.589293948511006   0.436287562499999   1.0
O324   O   0.410964566308159   0.583824158644035   0.127010345833334   1.0
O325   O   0.430333273110058   0.638340601588055   0.311464629166665   1.0
O326   O   0.039520394630948   0.373648297535127   0.168279170833337   1.0
O327   O   0.896828417697904   0.912069928176770   0.109043758333336   1.0
O328   O   0.485817922178619   0.488248968614947   0.552875041666667   1.0
O329   O   0.010629879026489   0.419974003050406   0.041606266666669   1.0
O330   O   0.347649479642200   0.086176459125205   0.074724991666670   1.0
O331   O   0.899404799992404   0.682763714931838   0.377191702083330   1.0
O332   O   0.152271029215818   0.237860806405415   0.370741685416668   1.0
O333   O   0.088227785317635   0.468223249773423   0.522750060416669   1.0
O334   O   0.901085282613863   0.970265630422183   0.492014566666668   1.0
O335   O   0.797520355826371   0.348082821143969   0.245185374999998   1.0
O336   O   0.976364267844460   0.896835663113308   0.207164608333336   1.0
O337   O   0.223763755910753   0.909111231786262   0.358964602083333   1.0
O338   O   0.670386171014755   0.656638692930102   0.172672908333332   1.0
O339   O   0.377906702940436   0.059025305064829   0.515137514583337   1.0
O340   O   0.376170354715107   0.060472502260048   0.212564627083331   1.0
O341   O   0.914998349685028   0.217289496319701   0.553916614583336   1.0
O342   O   0.395539061517006   0.031350159300807   0.257712522916670   1.0
O343   O   0.747984054901401   0.371347058143975   0.399039587499999   1.0
O344   O   0.558475772139495   0.285690344957814   0.418620904166666   1.0
O345   O   0.591880815534310   0.640837691735442   0.551791668749999   1.0
O346   O   0.162991612833153   0.670334179585801   0.469374975000001   1.0
O347   O   0.420520026659553   0.482898060157012   0.301143806250003   1.0
O348   O   0.836571432335383   0.429570711090172   0.144629162500003   1.0
O349   O   0.952895639601678   0.803071987659386   0.077318827083332   1.0
O350   O   0.232389553017811   0.353650522399718   0.035583337500000   1.0
O351   O   0.490567719552381   0.996320740698607   0.103864512500003   1.0
O352   O   0.256821608076230   0.636577958771234   0.159972985416665   1.0
O353   O   0.961162796783363   0.184491440356687   0.397339662500002   1.0
O354   O   0.160515871522243   0.512009848159430   0.566666604166670   1.0
O355   O   0.717267662716665   0.886329543070950   0.470360439583331   1.0
O356   O   0.015346024851425   0.654148548489893   0.336141745833331   1.0
O357   O   0.580387299305031   0.369675332046072   0.218424956249997   1.0
O358   O   0.980744424686669   0.746282318977038   0.193439643749997   1.0
O359   O   0.427969587872035   0.845515644404529   0.382731279166670   1.0
O360   O   0.320282402363908   0.084675430950703   0.561979137500003   1.0
O361   O   0.685744462326220   0.821153279208950   0.311291695833333   1.0
O362   O   0.658971059309536   0.970230685051533   0.295843760416666   1.0


# Number_of_total_atoms: 362
# Number_of_atom_type: 3
# Name_of_each_atom: C H O
# Number_of_each_atom: 120 202 40
# Created_by: Lihua Chen (lihua.chen@mse.gatech.edu)
# Tool: VASP
# K-points: 2 1 1
# Pseudopotential: PBE-HSE06
# Material_class: MC_Pol
# Geometry_class: GC_PD
# Bandgap_(eV): 5.68
