#======================================================================

# Note: Disordered slab of isotactic polymethyl methacrylate
# Common_name: Disordered slab-1

#----------------------------------------------------------------------

data_1
_audit_creation_method   'vasp2cif'
_cell_length_a    21.5613079
_cell_length_b    15.0678368
_cell_length_c    35.0
_cell_angle_alpha    90.0
_cell_angle_beta    90.0
_cell_angle_gamma    90.0

_symmetry_space_group_name_H-M    'P 1'
loop_
_atom_site_label
_atom_site_type_symbol
_atom_site_fract_x
_atom_site_fract_y
_atom_site_fract_z
_atom_site_occupancy
C1   C   0.108872059658310   0.016924672292710   0.307351468571426   1.0
C2   C   0.295613031897752   0.117768597015861   0.317457145714286   1.0
C3   C   0.328509927730309   0.246486469776471   0.388677108571429   1.0
C4   C   0.334325924634655   0.229118369532642   0.508308520000000   1.0
C5   C   0.469646996692624   0.322263763833703   0.521042851428568   1.0
C6   C   0.611609706663479   0.380122069015243   0.433119965714283   1.0
C7   C   0.631831063457888   0.600093976329767   0.408231462857145   1.0
C8   C   0.451007158058346   0.665219469326878   0.384588622857145   1.0
C9   C   0.381503025611913   0.758232077480422   0.309834291428572   1.0
C10   C   0.483890121526443   0.729774203553887   0.229074314285711   1.0
C11   C   0.502135777208579   0.835223951987587   0.145008577142860   1.0
C12   C   0.542332833158049   0.989360224554595   0.084865737142856   1.0
C13   C   0.674147661515470   0.866840985429306   0.052391434285717   1.0
C14   C   0.755186307598713   0.837148534818219   0.152748600000003   1.0
C15   C   0.912913320995706   0.753360867301140   0.156159974285714   1.0
C16   C   0.991452128003793   0.870630534039236   0.242205702857142   1.0
C17   C   0.911276073377721   0.831958712215410   0.323782894285713   1.0
C18   C   0.860402582535357   0.619081466292492   0.318368531428568   1.0
C19   C   0.762110729841211   0.500929124743372   0.220751408571431   1.0
C20   C   0.882261186947751   0.274221048106916   0.266177151428572   1.0
C21   C   0.774415215321888   0.148449862424847   0.214631434285714   1.0
C22   C   0.608497627363320   0.123841160796218   0.301497105714283   1.0
C23   C   0.491060377649909   0.336160927891122   0.259268625714284   1.0
C24   C   0.431291271528103   0.352580026616693   0.153734262857142   1.0
C25   C   0.293901656123559   0.426837553748925   0.169585691428573   1.0
C26   C   0.156998555732329   0.446588218953899   0.217499980000000   1.0
C27   C   0.162469907495733   0.603704282223177   0.331882805714287   1.0
C28   C   0.131744039516264   0.496276784733958   0.411248562857146   1.0
C29   C   0.033977720804217   0.376817082329957   0.459977177142861   1.0
C30   C   0.037186246016176   0.063434334515755   0.465091379999997   1.0
C31   C   0.174882888250018   0.975217491073437   0.303157154285714   1.0
C32   C   0.196660328754916   0.007693088366871   0.264602879999998   1.0
C33   C   0.024898016506690   0.026435002269203   0.349265725714282   1.0
C34   C   0.171147020260307   0.873683367741279   0.303319985714289   1.0
C35   C   0.248853359215744   0.096199488967123   0.347494288571426   1.0
C36   C   0.220206210217889   0.999978855624455   0.337854331428574   1.0
C37   C   0.401297733891177   0.091971961097961   0.295748574285717   1.0
C38   C   0.193544580846137   0.154867485689785   0.347494288571426   1.0
C39   C   0.297087909959302   0.175401269278417   0.412900000000000   1.0
C40   C   0.274236814734230   0.092124557653825   0.388725717142854   1.0
C41   C   0.319020739924596   0.382305647218054   0.355479977142856   1.0
C42   C   0.242944608197909   0.223171955247089   0.435068620000003   1.0
C43   C   0.378488343000754   0.186643831979914   0.476834325714286   1.0
C44   C   0.341190062964593   0.135030557272827   0.445091465714285   1.0
C45   C   0.268745464184015   0.186816365040535   0.560545677142855   1.0
C46   C   0.415522279147083   0.113288849796937   0.496548571428569   1.0
C47   C   0.484349235604583   0.302984247878236   0.478405762857143   1.0
C48   C   0.428188477378960   0.256229148964501   0.458302851428570   1.0
C49   C   0.428058615126957   0.437057952472649   0.564511437142855   1.0
C50   C   0.542318854414205   0.245451138679705   0.483905685714284   1.0
C51   C   0.543696377528192   0.397662828416088   0.421379962857145   1.0
C52   C   0.501838986307504   0.395651909370294   0.459965734285717   1.0
C53   C   0.706288517868622   0.303674512853760   0.414628602857142   1.0
C54   C   0.518178380078695   0.327135106746049   0.391542817142856   1.0
C55   C   0.583689266827825   0.550810226455333   0.383497185714283   1.0
C56   C   0.531832523944431   0.494458401620065   0.401511382857144   1.0
C57   C   0.635448701143034   0.662352475174139   0.472425734285714   1.0
C58   C   0.619814167210144   0.496960333416936   0.353959982857141   1.0
C59   C   0.510576869968077   0.704123454535953   0.364614322857143   1.0
C60   C   0.554335750661956   0.622134293357888   0.355911474285712   1.0
C61   C   0.379049542722775   0.701462276257203   0.434874288571429   1.0
C62   C   0.545505154629325   0.767111958632313   0.392037091428570   1.0
C63   C   0.439987404474664   0.810834233351933   0.315651377142856   1.0
C64   C   0.497585927985376   0.752750228884878   0.323617117142860   1.0
C65   C   0.343207561170260   0.623189501229533   0.283331411428570   1.0
C66   C   0.428814608226993   0.882138423479610   0.348891448571429   1.0
C67   C   0.454930876433522   0.826503443413991   0.233088574285716   1.0
C68   C   0.453919759663556   0.861286100470643   0.276817105714287   1.0
C69   C   0.579171975926378   0.644539679378532   0.239605714285716   1.0
C70   C   0.386182737087111   0.817689902242634   0.218374308571427   1.0
C71   C   0.495920903759277   0.921321274199094   0.166494260000000   1.0
C72   C   0.492382171306034   0.901351612727844   0.210997120000002   1.0
C73   C   0.572201109377040   0.727975697214880   0.125488554285717   1.0
C74   C   0.435428270100445   0.972171240930884   0.153948594285716   1.0
C75   C   0.585883029850891   0.005522863109320   0.119320025714288   1.0
C76   C   0.553876631945876   0.978456144414835   0.159388571428572   1.0
C77   C   0.501820411367532   0.878017101963835   0.043737139999998   1.0
C78   C   0.605649956884108   0.104820500843225   0.121231405714283   1.0
C79   C   0.693585253239668   0.945664529629099   0.078982871428572   1.0
C80   C   0.648912564344023   0.949812437575645   0.113925719999997   1.0
C81   C   0.673952868137462   0.815068470876987   0.985857119999999   1.0
C82   C   0.694786469794813   0.033343771018281   0.053077154285717   1.0
C83   C   0.795726505997351   0.852027989843904   0.116157151428574   1.0
C84   C   0.763214554345289   0.931216470303156   0.092519977142857   1.0
C85   C   0.709984977302788   0.889179918646320   0.211657171428570   1.0
C86   C   0.797975910357458   0.776973998019407   0.088131442857140   1.0
C87   C   0.910626766755648   0.857144776083587   0.157545688571432   1.0
C88   C   0.866673009200895   0.887680021859538   0.126399994285713   1.0
C89   C   0.973243538718727   0.626607397287444   0.138759994285714   1.0
C90   C   0.975172976403719   0.899891462854178   0.149788557142855   1.0
C91   C   0.926887426898624   0.917909955064019   0.234148625714283   1.0
C92   C   0.888452791864260   0.888363577179177   0.198137119999998   1.0
C93   C   0.051017484890146   0.738972557759588   0.236065674285712   1.0
C94   C   0.943927177070741   0.018172349729724   0.226037165714288   1.0
C95   C   0.858732869354370   0.840300984677512   0.292674257142856   1.0
C96   C   0.879399547000581   0.927592884467664   0.270405688571429   1.0
C97   C   0.013262831796950   0.779316816067450   0.338177162857143   1.0
C98   C   0.796204199653396   0.859560504398345   0.311039954285711   1.0
C99   C   0.831401493969665   0.653021328184280   0.279768591428571   1.0
C100   C   0.849934738884741   0.752073383221138   0.267042868571430   1.0
C101   C   0.860448934083443   0.645196654904041   0.384637125714285   1.0
C102   C   0.757370780832829   0.648986203513964   0.282740022857141   1.0
C103   C   0.827440713835358   0.496774513777588   0.237128557142860   1.0
C104   C   0.852499504447962   0.591665380925811   0.246265739999998   1.0
C105   C   0.710096259976879   0.522929568761988   0.159320014285711   1.0
C106   C   0.879376366588595   0.463584660009062   0.206388528571431   1.0
C107   C   0.821383567366986   0.330453380010063   0.275857108571429   1.0
C108   C   0.824778546945197   0.432073832920729   0.275268554285717   1.0
C109   C   0.990320438770787   0.271878356155277   0.275114331428568   1.0
C110   C   0.807154425914952   0.311306643565452   0.319068582857142   1.0
C111   C   0.743930005285065   0.193798117059508   0.249988557142856   1.0
C112   C   0.763673761182176   0.294549062278136   0.252454268571427   1.0
C113   C   0.804292776691902   0.176317100806401   0.149360002857144   1.0
C114   C   0.758534935628838   0.138866496085221   0.286737168571428   1.0
C115   C   0.617272577420962   0.203985345792965   0.272102902857142   1.0
C116   C   0.672779428190438   0.181082237365352   0.243571474285716   1.0
C117   C   0.600775456668842   0.971786301800137   0.309799959999999   1.0
C118   C   0.624716448671464   0.291914337697101   0.292537145714285   1.0
C119   C   0.523614084653929   0.281421783118859   0.227808600000003   1.0
C120   C   0.554391396636937   0.193784830480773   0.245994242857144   1.0
C121   C   0.451373569040307   0.468615242766632   0.284048571428570   1.0
C122   C   0.564251679741560   0.325940522530743   0.200182888571426   1.0
C123   C   0.409200807340632   0.284063210719140   0.183760017142859   1.0
C124   C   0.466859573022468   0.239856500171278   0.204585702857145   1.0
C125   C   0.460180989298891   0.500803048251754   0.142168594285714   1.0
C126   C   0.380079146311900   0.209772520233294   0.159357125714287   1.0
C127   C   0.289115304549775   0.355135124638458   0.201914322857142   1.0
C128   C   0.357010054107157   0.322695159533453   0.213402885714288   1.0
C129   C   0.325555570773148   0.583708040957809   0.160154288571427   1.0
C130   C   0.248361733195232   0.276099174368547   0.190459988571426   1.0
C131   C   0.194307029955269   0.407584617587574   0.252782879999998   1.0
C132   C   0.263685502121142   0.393813530021774   0.241659982857143   1.0
C133   C   0.059099564178105   0.440568761668565   0.184551402857146   1.0
C134   C   0.167347153370045   0.320219688070949   0.268728528571430   1.0
C135   C   0.143305977277940   0.515158068343297   0.310014234285717   1.0
C136   C   0.195445175197371   0.486381575356589   0.282045748571427   1.0
C137   C   0.236196446134883   0.669380670488813   0.374571445714288   1.0
C138   C   0.082745625092620   0.534099095100366   0.288871437142859   1.0
C139   C   0.094250038514595   0.446581509298007   0.381108528571431   1.0
C140   C   0.134100566320470   0.435033746848120   0.342245702857142   1.0
C141   C   0.227226660957797   0.492679765419282   0.443057142857143   1.0
C142   C   0.030474681918534   0.496721473649089   0.373871394285715   1.0
C143   C   0.031489912539115   0.314180360647391   0.425314331428574   1.0
C144   C   0.080890913857779   0.343076339929567   0.393671417142855   1.0
C145   C   0.093504703395105   0.417864766095690   0.513345662857141   1.0
C146   C   0.964760778728085   0.320193101640179   0.407780019999997   1.0
C147   C   0.002106272968717   0.151502696126890   0.454251428571432   1.0
C148   C   0.047760725127439   0.218645685092632   0.436602891428571   1.0
C149   C   0.014096273816484   0.901338319512462   0.467994254285713   1.0
C150   C   0.976977152670777   0.191196562468740   0.492777142857143   1.0
H151   H   0.245152303585442   0.995266765830650   0.262391445714286   1.0
H152   H   0.175423212615037   0.979146409390367   0.239782822857144   1.0
H153   H   0.212954344944912   0.845232070737588   0.295537131428574   1.0
H154   H   0.136635662997051   0.853010154715768   0.281645748571428   1.0
H155   H   0.151046194187508   0.854251195500076   0.330262865714289   1.0
H156   H   0.258324018460868   0.952221462871165   0.338585662857142   1.0
H157   H   0.190438512313065   0.980593139952248   0.362108611428574   1.0
H158   H   0.158838425566941   0.134267315664047   0.370668577142858   1.0
H159   H   0.174473840707968   0.155053311965787   0.321097128571431   1.0
H160   H   0.208000095393103   0.223105495806806   0.353128597142856   1.0
H161   H   0.314883694972885   0.047134735358959   0.390825762857140   1.0
H162   H   0.238515377817130   0.057056524530452   0.405428531428569   1.0
H163   H   0.223896607867651   0.187712333066948   0.460085731428571   1.0
H164   H   0.203850050302378   0.228414817978383   0.414422825714283   1.0
H165   H   0.254312197823580   0.291330405171365   0.444571468571425   1.0
H166   H   0.377532955688650   0.095973856048133   0.430665697142857   1.0
H167   H   0.318770254192231   0.078864558713562   0.459717122857143   1.0
H168   H   0.454123838192579   0.095708343482990   0.479857091428571   1.0
H169   H   0.383849826661027   0.052921843432763   0.501222882857142   1.0
H170   H   0.436267769266443   0.128778817142482   0.523400008571429   1.0
H171   H   0.397434350445877   0.310191692546070   0.450342888571427   1.0
H172   H   0.443948184608971   0.221632185450801   0.433159965714289   1.0
H173   H   0.555972998279941   0.212752437031973   0.457831465714286   1.0
H174   H   0.537388712861897   0.183318849060008   0.499805668571426   1.0
H175   H   0.579714596070488   0.282065591525388   0.497445679999998   1.0
H176   H   0.529188848511367   0.438146323697907   0.478931428571428   1.0
H177   H   0.457620819931797   0.429060746131789   0.455048588571429   1.0
H178   H   0.522542725712853   0.262401129802520   0.402965762857143   1.0
H179   H   0.553013957005824   0.325807736383233   0.368954251428569   1.0
H180   H   0.469943875714513   0.334309255327213   0.382022857142857   1.0
H181   H   0.502047665670595   0.533276176710380   0.419882857142859   1.0
H182   H   0.499065448622439   0.483043299221293   0.377702877142859   1.0
H183   H   0.650257621895008   0.535831274732153   0.334154294285717   1.0
H184   H   0.589537733933106   0.456549755038495   0.334177179999998   1.0
H185   H   0.653981857937289   0.455209230830000   0.368397194285713   1.0
H186   H   0.529471836910226   0.584869455182840   0.334271459999997   1.0
H187   H   0.587863419918044   0.663188680142859   0.342857142857142   1.0
H188   H   0.549836941941727   0.738932810846478   0.419445691428571   1.0
H189   H   0.518656161855560   0.827764347699862   0.393848528571425   1.0
H190   H   0.591114651259169   0.787931111651012   0.385314288571429   1.0
H191   H   0.498810324952501   0.699510980899397   0.303079988571426   1.0
H192   H   0.538218922238940   0.795171726309114   0.318522862857144   1.0
H193   H   0.470333462470521   0.925289939429128   0.353962817142857   1.0
H194   H   0.422432810766551   0.852280149463787   0.376639994285718   1.0
H195   H   0.389772421922515   0.929603790240151   0.344362857142855   1.0
H196   H   0.497196341229376   0.904251783507505   0.282374245714287   1.0
H197   H   0.418541557954377   0.917903371504529   0.273499951428569   1.0
H198   H   0.356560183438596   0.771359482736102   0.233965737142860   1.0
H199   H   0.386739247854251   0.800958900749443   0.187868554285714   1.0
H200   H   0.358401426102731   0.879145346198598   0.221248517142854   1.0
H201   H   0.543594296522244   0.886969886745788   0.218182808571427   1.0
H202   H   0.487229459767605   0.966337616558206   0.225817108571427   1.0
H203   H   0.393181380244563   0.936180719716845   0.150551442857143   1.0
H204   H   0.435205700114324   0.011685864556220   0.127428545714288   1.0
H205   H   0.427515994982848   0.023859967742680   0.173982837142859   1.0
H206   H   0.590864211906180   0.948159884503127   0.175085722857140   1.0
H207   H   0.547559765611439   0.040703818878633   0.174305725714284   1.0
H208   H   0.615111284598832   0.135269483407200   0.093785694285714   1.0
H209   H   0.642836931056486   0.123993817081960   0.139965714285715   1.0
H210   H   0.567085459597749   0.149432093663236   0.129848588571427   1.0
H211   H   0.641876859427441   0.882987928300366   0.121411405714284   1.0
H212   H   0.678474852631737   0.971799595015526   0.137445722857144   1.0
H213   H   0.652391049988204   0.053698371620271   0.041162874285718   1.0
H214   H   0.731412244245163   0.031326215319773   0.031274305714284   1.0
H215   H   0.706158655616619   0.088242162272422   0.070680019999997   1.0
H216   H   0.766405455394477   0.985404726443548   0.110725731428573   1.0
H217   H   0.794112526912151   0.950628652946385   0.069191414285712   1.0
H218   H   0.803666645843876   0.805491747826736   0.059428568571427   1.0
H219   H   0.758149949706898   0.727345175387086   0.090699985714288   1.0
H220   H   0.833293781774714   0.726508970418365   0.091919980000000   1.0
H221   H   0.858955527461298   0.958619275727756   0.133342851428573   1.0
H222   H   0.888044630168281   0.892252748582997   0.097211402857141   1.0
H223   H   0.979996436116011   0.969556393124726   0.158302851428573   1.0
H224   H   0.989021820888702   0.895743554907632   0.118274308571429   1.0
H225   H   0.009534862214920   0.872024224472618   0.169148582857140   1.0
H226   H   0.851785266699892   0.844183446425433   0.207191468571430   1.0
H227   H   0.857601268242171   0.945445413903073   0.192122868571431   1.0
H228   H   0.920640097162192   0.060228844527970   0.246328517142857   1.0
H229   H   0.931400121603943   0.039124302169242   0.197477125714286   1.0
H230   H   0.994132869833933   0.037777001938331   0.224865725714288   1.0
H231   H   0.839550401300102   0.961380076800410   0.258199965714283   1.0
H232   H   0.892177027906548   0.979803378279222   0.289762879999998   1.0
H233   H   0.761248054901159   0.851802290558389   0.288800048571431   1.0
H234   H   0.791158169954990   0.926059817690621   0.322717177142856   1.0
H235   H   0.784539828402522   0.808664074460907   0.336060005714288   1.0
H236   H   0.894774351791526   0.743790734447032   0.254371428571432   1.0
H237   H   0.815238313998570   0.763010500618108   0.244734302857140   1.0
H238   H   0.737668784925610   0.590291686727056   0.294200025714282   1.0
H239   H   0.735484307053561   0.658085067658817   0.254234314285718   1.0
H240   H   0.734208869583462   0.702258614853065   0.297751400000003   1.0
H241   H   0.900683056429983   0.583263478139081   0.250648608571432   1.0
H242   H   0.845959980006590   0.629627060999226   0.219280025714284   1.0
H243   H   0.881992172654797   0.499502270956370   0.182154302857143   1.0
H244   H   0.862178889435555   0.400974518120613   0.196037131428568   1.0
H245   H   0.924985863218438   0.459091685941274   0.216902814285717   1.0
H246   H   0.789650784589000   0.455574167089466   0.295219965714288   1.0
H247   H   0.867906695956975   0.448134565673023   0.289885711428575   1.0
H248   H   0.818545186676729   0.246937742251099   0.329122817142860   1.0
H249   H   0.760705430119110   0.332265172927812   0.326548548571431   1.0
H250   H   0.843181929608271   0.346228796425507   0.333814240000002   1.0
H251   H   0.768084370243606   0.314870492889860   0.223094285714289   1.0
H252   H   0.723295885960610   0.325137474278989   0.262779999999999   1.0
H253   H   0.807571784641134   0.129183639684761   0.289102825714288   1.0
H254   H   0.736588136195579   0.073707833097849   0.282780022857146   1.0
H255   H   0.736068687187569   0.168339897336821   0.311097171428571   1.0
H256   H   0.663907076805856   0.115585151546107   0.235260011428572   1.0
H257   H   0.670599555790396   0.221273826114178   0.217288534285714   1.0
H258   H   0.622750032710215   0.356004506234100   0.278085762857145   1.0
H259   H   0.663373653691949   0.290912296050351   0.313137165714288   1.0
H260   H   0.588758560421098   0.307278235187681   0.312294337142859   1.0
H261   H   0.522310777816962   0.157761013180071   0.263259997142860   1.0
H262   H   0.564084751092487   0.150998317157246   0.221465737142857   1.0
H263   H   0.613038186797567   0.332225426014702   0.212291391428572   1.0
H264   H   0.551079918486764   0.396302301336313   0.194868579999998   1.0
H265   H   0.560995847566375   0.291058249316848   0.173697117142858   1.0
H266   H   0.441596787363721   0.193652044333263   0.224525668571431   1.0
H267   H   0.485768514070522   0.187566253704048   0.185397122857140   1.0
H268   H   0.341050910923634   0.237785837977753   0.143574305714289   1.0
H269   H   0.363405788569999   0.159798512019989   0.178091431428570   1.0
H270   H   0.409720256348642   0.175633545486768   0.137322834285712   1.0
H271   H   0.382296085109012   0.374958826206559   0.226362828571432   1.0
H272   H   0.352112419859281   0.269144008780344   0.233119965714288   1.0
H273   H   0.252155589318399   0.215858304225861   0.208691405714283   1.0
H274   H   0.252614708034478   0.257941325725007   0.160422842857145   1.0
H275   H   0.200362803594118   0.289724308667850   0.191962868571430   1.0
H276   H   0.288285090534792   0.456609498186232   0.243885694285716   1.0
H277   H   0.280400592025309   0.354239163248700   0.265802874285711   1.0
H278   H   0.175388446635004   0.260635793453773   0.251382882857143   1.0
H279   H   0.117209680030591   0.324785705138510   0.274219948571428   1.0
H280   H   0.179633546256255   0.304298318389009   0.298508562857144   1.0
H281   H   0.210454464128311   0.545454454351400   0.267468588571425   1.0
H282   H   0.238580308943135   0.481364285814408   0.296802848571431   1.0
H283   H   0.058146941076799   0.477661066782993   0.274991391428571   1.0
H284   H   0.093191197367020   0.579507099519418   0.265071434285716   1.0
H285   H   0.048229639167665   0.572717757335944   0.304119982857145   1.0
H286   H   0.176045628475073   0.395711665791339   0.347794234285715   1.0
H287   H   0.110989746591393   0.391961864094519   0.323791394285713   1.0
H288   H   0.008066486541850   0.473234293326037   0.349217114285715   1.0
H289   H   0.040202282905113   0.567806674147150   0.367914257142857   1.0
H290   H   0.995493960735097   0.500033163353613   0.396694291428574   1.0
H291   H   0.127103319182226   0.317989779395539   0.403205762857141   1.0
H292   H   0.069922646019073   0.308260400059552   0.367951422857146   1.0
H293   H   0.927244548091629   0.302174616066985   0.428802817142859   1.0
H294   H   0.959538442470830   0.281143043704851   0.381091417142855   1.0
H295   H   0.949093867353007   0.390840322878994   0.403662871428573   1.0
H296   H   0.089417293651280   0.224114373205850   0.453682817142855   1.0
H297   H   0.061808124357796   0.197322219470813   0.408337185714288   1.0
H298   H   0.010687385063498   0.197395129737537   0.514837102857143   1.0
H299   H   0.946867638766939   0.142463575129774   0.505845751428573   1.0
H300   H   0.947428843126907   0.248948654660239   0.490885708571426   1.0
H301   H   0.197796178217928   0.078068153751175   0.261582837142861   1.0
H302   H   0.964705132753103   0.135574742885453   0.432222857142854   1.0
H303   H   0.019550024606808   0.096710511226135   0.351842825714286   1.0
H304   H   0.992426090255869   0.008774876032639   0.327239991428570   1.0
H305   H   0.000289578908152   0.995638418382654   0.372954231428572   1.0
H306   H   0.442283160382864   0.055755740598414   0.305525754285718   1.0
H307   H   0.386020321151300   0.069294478952678   0.266891479999998   1.0
H308   H   0.415661426550102   0.162307153472753   0.298685674285714   1.0
H309   H   0.294217021964606   0.442606260508477   0.355545700000000   1.0
H310   H   0.371823640624321   0.397330929413833   0.357777188571426   1.0
H311   H   0.312680646798796   0.366264777967331   0.325514331428572   1.0
H312   H   0.227305524448262   0.156274409608685   0.544288525714286   1.0
H313   H   0.268040516224900   0.148748478613733   0.590437100000003   1.0
H314   H   0.260142085350957   0.256408258947957   0.565817151428568   1.0
H315   H   0.464132475006302   0.461188815105828   0.584325737142855   1.0
H316   H   0.406863296080473   0.498035544159862   0.555754308571430   1.0
H317   H   0.389276236809366   0.402461121691999   0.576811437142858   1.0
H318   H   0.727145295300012   0.310437268606464   0.384251405714288   1.0
H319   H   0.731426130230254   0.345173462457467   0.433674294285716   1.0
H320   H   0.712814068204089   0.237566848348131   0.426148554285717   1.0
H321   H   0.684800920634316   0.650605593232868   0.469948580000001   1.0
H322   H   0.625449265997446   0.733676535440047   0.465400042857141   1.0
H323   H   0.620226929740191   0.646869078114783   0.501502882857146   1.0
H324   H   0.363804665114955   0.632441028296775   0.440077100000003   1.0
H325   H   0.381646773848999   0.743790734447032   0.461168562857139   1.0
H326   H   0.344784478496315   0.739974725502734   0.418382808571430   1.0
H327   H   0.304921363327871   0.656903783295554   0.270631408571425   1.0
H328   H   0.356193777094568   0.574649049822469   0.262825665714288   1.0
H329   H   0.327489609292208   0.589176729071021   0.307700022857141   1.0
H330   H   0.567526086856724   0.601633620029652   0.262625668571431   1.0
H331   H   0.567674524048698   0.607314714212990   0.213331385714284   1.0
H332   H   0.627322969586643   0.662033862750626   0.234908622857141   1.0
H333   H   0.554683577428065   0.667124182019279   0.136380005714287   1.0
H334   H   0.551325757005678   0.736808982428052   0.095628574285712   1.0
H335   H   0.622467044311350   0.717410099636865   0.123002842857140   1.0
H336   H   0.462040802265058   0.856793126402856   0.060908562857144   1.0
H337   H   0.481534030688373   0.917545012167906   0.021397128571429   1.0
H338   H   0.526336577198080   0.822076796053430   0.028914260000001   1.0
H339   H   0.705685562794642   0.761915426373612   0.987274280000001   1.0
H340   H   0.625773916989516   0.787871368503275   0.988494274285713   1.0
H341   H   0.675701314946672   0.849386562243623   0.958842851428571   1.0
H342   H   0.733364769583389   0.842351650636409   0.230519977142855   1.0
H343   H   0.706051969138663   0.948624450193144   0.230405754285712   1.0
H344   H   0.662877473216732   0.868559871845704   0.207342857142855   1.0
H345   H   0.026507839999816   0.618948680144982   0.137094280000000   1.0
H346   H   0.949107753338097   0.595581006027352   0.163911440000000   1.0
H347   H   0.950972171776279   0.602702240576434   0.113131439999997   1.0
H348   H   0.054097080075557   0.684903807824625   0.215005711428574   1.0
H349   H   0.092949078474035   0.770536438249714   0.241871425714287   1.0
H350   H   0.041028308862472   0.698840718795147   0.260411400000002   1.0
H351   H   0.053701014120762   0.773589391411512   0.320042854285717   1.0
H352   H   0.019135847505801   0.844853708529683   0.348937117142860   1.0
H353   H   0.012589398623632   0.724484764793843   0.361422840000003   1.0
H354   H   0.873787623987319   0.706194116729485   0.398508565714287   1.0
H355   H   0.822723940601023   0.617216500513202   0.401691437142858   1.0
H356   H   0.897979138825804   0.599131681596127   0.387757111428570   1.0
H357   H   0.667167509815116   0.524349852262802   0.175274277142854   1.0
H358   H   0.717234055175290   0.584657168572463   0.139668548571429   1.0
H359   H   0.709479418917809   0.469378418008880   0.136965725714283   1.0
H360   H   0.008290494288616   0.312992366628237   0.253514320000001   1.0
H361   H   0.018147971441010   0.270385042927991   0.301194328571427   1.0
H362   H   0.989216614266709   0.204157885490240   0.265537154285717   1.0
H363   H   0.774299243692909   0.144673607030306   0.127448545714287   1.0
H364   H   0.820237987510950   0.240646255207651   0.138659994285717   1.0
H365   H   0.847355994577676   0.141926032806516   0.157451411428575   1.0
H366   H   0.636380912681091   0.961997298776161   0.332697188571430   1.0
H367   H   0.555991485099099   0.973810507424659   0.324374280000001   1.0
H368   H   0.599282050046696   0.915062824412857   0.290379988571431   1.0
H369   H   0.445237512702093   0.536090137371275   0.275485665714285   1.0
H370   H   0.411607850560863   0.434383354882101   0.296077182857140   1.0
H371   H   0.486988222082765   0.470606285037547   0.306577191428573   1.0
H372   H   0.447190126161132   0.566266904350861   0.151968548571432   1.0
H373   H   0.513062730299396   0.509994825534612   0.144920022857143   1.0
H374   H   0.445344199180049   0.492785971772669   0.113034274285717   1.0
H375   H   0.281216873675831   0.610838683891238   0.165445708571426   1.0
H376   H   0.356750334241084   0.629620477439737   0.172745731428570   1.0
H377   H   0.337224635616842   0.565875381660625   0.130345700000000   1.0
H378   H   0.017391514547221   0.400828438757714   0.179508591428572   1.0
H379   H   0.045636099839747   0.503908915445649   0.196197131428569   1.0
H380   H   0.075710337590422   0.453470467638724   0.155711420000003   1.0
H381   H   0.202163705477254   0.689821474572916   0.396234239999998   1.0
H382   H   0.273643140173327   0.633051540616634   0.390234265714284   1.0
H383   H   0.246265371499099   0.725579839038339   0.356122808571428   1.0
H384   H   0.266412600137308   0.451300182651302   0.444977134285715   1.0
H385   H   0.245908250306094   0.562795968164458   0.440714265714284   1.0
H386   H   0.205584165884481   0.484894971785202   0.471177128571426   1.0
H387   H   0.046775177307310   0.433049414233103   0.525877162857142   1.0
H388   H   0.122687538820408   0.382046777942271   0.533128574285712   1.0
H389   H   0.119148806367171   0.478351205662115   0.509388625714287   1.0
H390   H   0.026955878683040   0.868752281681203   0.441522871428575   1.0
H391   H   0.055569634530379   0.895239248941159   0.485540011428569   1.0
H392   H   0.975070890759831   0.872097141375995   0.482482914285711   1.0
O393   O   0.089938134040558   0.074491011211379   0.285685731428572   1.0
O394   O   0.284250089485525   0.172136029506241   0.291268594285711   1.0
O395   O   0.377811255132627   0.229271032455038   0.375194331428574   1.0
O396   O   0.307152234489450   0.303190070388872   0.503288597142856   1.0
O397   O   0.485235090956614   0.271387204034490   0.547568620000000   1.0
O398   O   0.638486476045358   0.418037299156303   0.459251402857141   1.0
O399   O   0.681531202474041   0.632295075030278   0.396922851428570   1.0
O400   O   0.418309702817240   0.610314375053491   0.368777142857141   1.0
O401   O   0.330546005513888   0.788734173176074   0.318539974285713   1.0
O402   O   0.453525572073481   0.665252639317146   0.215668597142859   1.0
O403   O   0.459211623242950   0.800812947482946   0.126088551428573   1.0
O404   O   0.502928924826492   0.045787494857919   0.072368568571427   1.0
O405   O   0.653323261526261   0.794182851781351   0.064245714285711   1.0
O406   O   0.725146418413701   0.765658518414533   0.157131414285715   1.0
O407   O   0.867099745836846   0.709612012787396   0.166351428571431   1.0
O408   O   0.027562989349086   0.897721310599806   0.265474265714289   1.0
O409   O   0.909522942251570   0.872661323223248   0.354411425714282   1.0
O410   O   0.906174402342259   0.566266904350861   0.319745745714286   1.0
O411   O   0.712846533767092   0.494093332627550   0.240045711428572   1.0
O412   O   0.885410332644987   0.225627430474958   0.239731380000002   1.0
O413   O   0.801009084425715   0.076189961123021   0.218565697142857   1.0
O414   O   0.597719018705725   0.138249333839347   0.335622842857141   1.0
O415   O   0.472077303807716   0.295956045926914   0.288419997142860   1.0
O416   O   0.446327451221080   0.332437832084828   0.120954297142859   1.0
O417   O   0.267868898620939   0.414685855902022   0.137245722857145   1.0
O418   O   0.173132544524350   0.513903747616908   0.200774274285713   1.0
O419   O   0.128920940830312   0.667880773702038   0.333614240000003   1.0
O420   O   0.110802823793449   0.561276201239451   0.430022865714285   1.0
O421   O   0.990436415037699   0.424235992521503   0.468297139999997   1.0
O422   O   0.087972112304001   0.059843905397223   0.479417094285715   1.0
O423   O   0.082571707071629   0.992386471825867   0.341462817142855   1.0
O424   O   0.351885160918279   0.078672082511538   0.322182900000001   1.0
O425   O   0.296364382422276   0.322038197281245   0.382728577142856   1.0
O426   O   0.322206993760339   0.176987489007047   0.538908605714283   1.0
O427   O   0.444579004411878   0.402938980597398   0.527239991428573   1.0
O428   O   0.643249698224473   0.329809704336590   0.409908622857145   1.0
O429   O   0.608557869534437   0.604905562821067   0.444491468571428   1.0
O430   O   0.436495028207446   0.708550095259859   0.414962877142855   1.0
O431   O   0.391145256081614   0.681207172352700   0.292925699999998   1.0
O432   O   0.543895771740267   0.725513379598056   0.240219988571425   1.0
O433   O   0.554947995524891   0.796452633466274   0.151951437142856   1.0
O434   O   0.547142314126503   0.906441812536755   0.070725740000000   1.0
O435   O   0.692184549713701   0.878448497663577   0.014822879999997   1.0
O436   O   0.749245137397253   0.904855712267867   0.177465711428575   1.0
O437   O   0.965730140146093   0.718186568094502   0.141954257142857   1.0
O438   O   0.997680892076126   0.792052565899837   0.226442828571429   1.0
O439   O   0.958467083529754   0.780146318016932   0.313402885714282   1.0
O440   O   0.831002714821395   0.654275642274015   0.348437174285714   1.0
O441   O   0.763543898930173   0.511335356379753   0.181222862857140   1.0
O442   O   0.932490060122930   0.304756300519529   0.285114291428570   1.0
O443   O   0.766785752361528   0.194242799337992   0.181505694285711   1.0
O444   O   0.619600798892165   0.046059590982566   0.286034285714287   1.0
O445   O   0.483245411100505   0.423618770545751   0.254274314285716   1.0
O446   O   0.439129413851561   0.433613602717017   0.166939982857144   1.0
O447   O   0.324730003971602   0.501911296251897   0.181128582857141   1.0
O448   O   0.102349718775642   0.403602659142152   0.211420005714288   1.0
O449   O   0.213786859376931   0.595488092889354   0.350902885714284   1.0
O450   O   0.187211917696331   0.463797072715842   0.414317105714282   1.0
O451   O   0.089088018635458   0.374388060799809   0.477254268571428   1.0
O452   O   0.998835135599542   0.990800378193640   0.458025685714283   1.0


# Number_of_total_atoms: 452
# Number_of_atom_type: 3
# Name_of_each_atom: C H O
# Number_of_each_atom: 150 242 60
# Created_by: Lihua Chen (lihua.chen@mse.gatech.edu)
# Tool: VASP
# K-points: 1 1 1
# Pseudopotential: PBE-HSE06
# Material_class: MC_Pol
# Geometry_class: GC_PD
# Bandgap_(eV): 5.52
