#======================================================================

# Note: Disordered slab of isotactic polymethyl methacrylate
# Common_name: Disordered slab-2

#----------------------------------------------------------------------

data_1
_audit_creation_method   'vasp2cif'
_cell_length_a    20.5176811
_cell_length_b    16.532692
_cell_length_c    35.0
_cell_angle_alpha    90.0
_cell_angle_beta    90.0
_cell_angle_gamma    90.0

_symmetry_space_group_name_H-M    'P 1'
loop_
_atom_site_label
_atom_site_type_symbol
_atom_site_fract_x
_atom_site_fract_y
_atom_site_fract_z
_atom_site_occupancy
C1   C   0.114220056768502   0.009565707750440   0.477245768571429   1.0
C2   C   0.305399590210030   0.118592096193410   0.439291382857142   1.0
C3   C   0.378361037105698   0.233890947705312   0.500194331428574   1.0
C4   C   0.449792111253743   0.161204654390225   0.616591425714283   1.0
C5   C   0.568592042304431   0.288951514974087   0.620854297142856   1.0
C6   C   0.646729571208709   0.449947752005542   0.598862897142858   1.0
C7   C   0.621609778309697   0.653006001684417   0.584988622857146   1.0
C8   C   0.461850018713861   0.649582445496478   0.531291417142860   1.0
C9   C   0.369222577496828   0.719589199387492   0.456025697142856   1.0
C10   C   0.506630878476805   0.746517663306136   0.380005754285712   1.0
C11   C   0.489396981611144   0.805993718385366   0.293254308571427   1.0
C12   C   0.517377755715287   0.959822356818840   0.233251408571427   1.0
C13   C   0.659806053813753   0.035181620754805   0.212417168571427   1.0
C14   C   0.738708747159542   0.905070172480080   0.320831408571429   1.0
C15   C   0.880742283298282   0.802322235241547   0.290382877142861   1.0
C16   C   0.995448247804184   0.837150199132722   0.373754337142856   1.0
C17   C   0.944653121643462   0.785706659266381   0.470957185714283   1.0
C18   C   0.872720104807556   0.620210368644138   0.469640022857142   1.0
C19   C   0.741428420972973   0.507445925926646   0.385054234285711   1.0
C20   C   0.886790715350379   0.311645955782637   0.414922877142857   1.0
C21   C   0.778157673968330   0.184080511510167   0.374585722857141   1.0
C22   C   0.588316552010355   0.157061312217032   0.440080042857140   1.0
C23   C   0.484099121708255   0.375604069803032   0.386768560000000   1.0
C24   C   0.438933169694309   0.407643691662557   0.290428597142856   1.0
C25   C   0.263942648957538   0.410317121978686   0.306517137142855   1.0
C26   C   0.141784082997567   0.422583775225476   0.360477119999999   1.0
C27   C   0.151569316476021   0.520656061335927   0.486700002857141   1.0
C28   C   0.109687405171726   0.394826619887432   0.550282834285717   1.0
C29   C   0.066704950395199   0.221757436719926   0.586885725714289   1.0
C30   C   0.849617942448674   0.172146580847212   0.587897165714288   1.0
C31   C   0.175158736627402   0.996319752403302   0.451882825714286   1.0
C32   C   0.168638994004056   0.040589052285014   0.412682888571432   1.0
C33   C   0.056431386878316   0.951922856846302   0.528151377142855   1.0
C34   C   0.176622366939895   0.905638706630477   0.441157097142856   1.0
C35   C   0.271726155252509   0.097651773830904   0.476997157142854   1.0
C36   C   0.239105548823446   0.012977088062854   0.474985722857142   1.0
C37   C   0.390886819076258   0.094349238466428   0.397317177142860   1.0
C38   C   0.221959317810040   0.153196242934911   0.491714260000002   1.0
C39   C   0.363710258660760   0.160841700795004   0.530651419999998   1.0
C40   C   0.328194563858389   0.086498139564931   0.509111460000000   1.0
C41   C   0.347953097877131   0.364885887912266   0.478857094285715   1.0
C42   C   0.322784590896092   0.187758049324330   0.565794262857146   1.0
C43   C   0.480906743403864   0.156033094912793   0.576980045714286   1.0
C44   C   0.428634744693447   0.121664820224076   0.545254300000003   1.0
C45   C   0.413160281548578   0.093641513432900   0.674899945714287   1.0
C46   C   0.534913772492544   0.088603029682041   0.577197157142855   1.0
C47   C   0.569289065517253   0.287179341392196   0.575959997142860   1.0
C48   C   0.510583591242188   0.236933331849407   0.559854234285716   1.0
C49   C   0.516485788445166   0.334993617494355   0.675825719999999   1.0
C50   C   0.631123523993168   0.240828741018099   0.562022837142855   1.0
C51   C   0.615571108569377   0.444788247431212   0.559500014285717   1.0
C52   C   0.560735423458745   0.376735137871073   0.557877131428569   1.0
C53   C   0.745405390865542   0.441044084048741   0.635377177142857   1.0
C54   C   0.662150441552576   0.421724858843312   0.526017108571430   1.0
C55   C   0.616926018018674   0.611905580772934   0.545859962857143   1.0
C56   C   0.581605218535152   0.525446612082291   0.550474331428575   1.0
C57   C   0.549715708370179   0.670135656068595   0.641654314285717   1.0
C58   C   0.688352213447750   0.606927552996211   0.533137185714288   1.0
C59   C   0.515028528248251   0.711308642294917   0.517148591428573   1.0
C60   C   0.582487423493490   0.663524476231700   0.513471440000004   1.0
C61   C   0.398806832025478   0.589047893712653   0.581891414285714   1.0
C62   C   0.521642350704049   0.786964754439268   0.546465737142860   1.0
C63   C   0.428844324907651   0.779627794432997   0.462457165714284   1.0
C64   C   0.497682523197028   0.744963191717353   0.475891439999998   1.0
C65   C   0.337138040419198   0.589398725869934   0.442968531428569   1.0
C66   C   0.403334604903279   0.843755269861674   0.492531477142855   1.0
C67   C   0.444830536916768   0.794743342463526   0.383265685714285   1.0
C68   C   0.439016044556808   0.829026882010503   0.425888605714285   1.0
C69   C   0.625289550874243   0.751199308618340   0.386182839999996   1.0
C70   C   0.386198184940113   0.745477270126365   0.368408531428571   1.0
C71   C   0.462931992836168   0.880797023255496   0.314485714285716   1.0
C72   C   0.450440332655333   0.871318826964178   0.358617182857145   1.0
C73   C   0.588199511493528   0.736077754306436   0.275288554285716   1.0
C74   C   0.400683257524655   0.905324214592518   0.295202854285712   1.0
C75   C   0.537457934269192   0.997607951566508   0.271545737142859   1.0
C76   C   0.509428455830715   0.959362613178783   0.309517125714287   1.0
C77   C   0.553161502251832   0.855562167371168   0.186560005714284   1.0
C78   C   0.506046060926444   0.086231982063175   0.270560019999998   1.0
C79   C   0.667760188552691   0.045022710155131   0.256457137142860   1.0
C80   C   0.613616691800516   0.998975067097362   0.280499977142860   1.0
C81   C   0.595729650949686   0.075973489374867   0.159211405714288   1.0
C82   C   0.664957776344423   0.140560702394985   0.264759991428569   1.0
C83   C   0.767859244093621   0.935712453845994   0.282154302857144   1.0
C84   C   0.739971068172999   0.019001563689692   0.270388577142860   1.0
C85   C   0.703392870259592   0.943521272881632   0.383548519999998   1.0
C86   C   0.748622128647860   0.873175796174031   0.249457168571432   1.0
C87   C   0.891669507427913   0.890680513494111   0.305034311428571   1.0
C88   C   0.844846428576183   0.952745427060520   0.286551448571430   1.0
C89   C   0.879041467312796   0.720254535679970   0.235768562857146   1.0
C90   C   0.961121761464554   0.911457535167294   0.291471425714285   1.0
C91   C   0.936986612000709   0.899947014073689   0.380500031428575   1.0
C92   C   0.882579757027223   0.900303846463721   0.349762834285713   1.0
C93   C   0.022402677854274   0.703336577007541   0.348600005714289   1.0
C94   C   0.967867211855634   0.985625801291164   0.379642814285717   1.0
C95   C   0.885835446579776   0.807536189508639   0.444528525714283   1.0
C96   C   0.902377335419253   0.886966689998218   0.421194239999998   1.0
C97   C   0.055192445699916   0.743541741417552   0.473680005714286   1.0
C98   C   0.829859403556085   0.829547081624696   0.473845674285712   1.0
C99   C   0.839455975363613   0.649782031867524   0.432025691428571   1.0
C100   C   0.860837616781168   0.734353921309363   0.418657140000000   1.0
C101   C   0.856884904015786   0.594576340017703   0.536325728571427   1.0
C102   C   0.764418285066334   0.659326805338175   0.440674265714286   1.0
C103   C   0.816490465874331   0.505395370578491   0.393902805714283   1.0
C104   C   0.853711952858063   0.592174946463651   0.397165680000001   1.0
C105   C   0.658119737517509   0.549834666973773   0.336931448571427   1.0
C106   C   0.850412388951696   0.467071291233154   0.357491411428569   1.0
C107   C   0.824015682746918   0.352407653877542   0.432182857142855   1.0
C108   C   0.832876367300592   0.449131175975452   0.429988534285712   1.0
C109   C   0.952631615860334   0.189179505672762   0.419245694285714   1.0
C110   C   0.818829931029583   0.330547898672520   0.474294282857144   1.0
C111   C   0.739927188945344   0.223124437326966   0.406217194285716   1.0
C112   C   0.761430608257186   0.315474684945443   0.412979999999998   1.0
C113   C   0.821222940247374   0.206490630805924   0.310477120000002   1.0
C114   C   0.750352416774817   0.169751368984556   0.443179977142854   1.0
C115   C   0.599233916351295   0.236177326717268   0.415659985714285   1.0
C116   C   0.666146936068714   0.221969138480290   0.389577157142860   1.0
C117   C   0.557942773562260   0.015910675647980   0.437571388571428   1.0
C118   C   0.606037843136178   0.310115708923867   0.443394254285714   1.0
C119   C   0.520779670369279   0.316920366023872   0.360797120000001   1.0
C120   C   0.541166993769096   0.242673479914828   0.387648557142860   1.0
C121   C   0.490103674532690   0.508437863597770   0.416339982857146   1.0
C122   C   0.579543621038148   0.353901675540804   0.340734262857140   1.0
C123   C   0.411361852192940   0.329870459087971   0.312199999999997   1.0
C124   C   0.471773162513962   0.283519858713873   0.329265702857143   1.0
C125   C   0.457882664917726   0.548455550977422   0.289465714285711   1.0
C126   C   0.385623080963079   0.274688877044340   0.279759980000002   1.0
C127   C   0.282204927144520   0.347199814767009   0.339097160000002   1.0
C128   C   0.357510717914416   0.344133097017718   0.343734305714285   1.0
C129   C   0.268095179625341   0.551219777154259   0.290697151428574   1.0
C130   C   0.254243682537791   0.263601747374231   0.329305702857141   1.0
C131   C   0.181123362912587   0.380951045359097   0.391465760000003   1.0
C132   C   0.255486527666129   0.373650419423527   0.378694262857145   1.0
C133   C   0.041823975907299   0.418004920190853   0.327559988571430   1.0
C134   C   0.153037825507482   0.290034242457310   0.400802831428571   1.0
C135   C   0.125273932637540   0.452173548022309   0.458214242857146   1.0
C136   C   0.187284371039375   0.426031435170991   0.431177194285716   1.0
C137   C   0.222817119425841   0.556566752710324   0.534442902857144   1.0
C138   C   0.067368275842831   0.483354253499669   0.435522897142860   1.0
C139   C   0.061144380492394   0.374128278685646   0.518899971428574   1.0
C140   C   0.101424268651883   0.376468986417940   0.479382868571427   1.0
C141   C   0.211236892652550   0.360228473378683   0.578239985714283   1.0
C142   C   0.005680997741990   0.435824129548898   0.519539968571429   1.0
C143   C   0.008101358978621   0.249998439455595   0.561525725714283   1.0
C144   C   0.029730996257662   0.286030042778272   0.522545734285714   1.0
C145   C   0.141106160383785   0.111249081516789   0.591465759999998   1.0
C146   C   0.962944545424286   0.309178112070313   0.585740008571427   1.0
C147   C   0.921083182251039   0.135141107086490   0.582551465714289   1.0
C148   C   0.962505952975356   0.177154839635314   0.551077162857140   1.0
C149   C   0.751473342667367   0.152621654114164   0.624568611428572   1.0
C150   C   0.917120799776932   0.043534749210835   0.578674317142855   1.0
H151   H   0.210198749019447   0.019630608251823   0.394082859999997   1.0
H152   H   0.128698812849763   0.017979340569582   0.397617125714284   1.0
H153   H   0.202412781432692   0.886367815961250   0.416142819999998   1.0
H154   H   0.125630717596053   0.878958284591526   0.438811385714288   1.0
H155   H   0.205842491625432   0.873000434532983   0.463988602857142   1.0
H156   H   0.275055001220387   0.969524303725009   0.466080040000001   1.0
H157   H   0.224615592646089   0.985674020903552   0.502291434285716   1.0
H158   H   0.207138466539476   0.138328730735445   0.520928519999998   1.0
H159   H   0.178135681229591   0.164501129035735   0.475502885714285   1.0
H160   H   0.246864695640482   0.209508899095198   0.495797185714288   1.0
H161   H   0.369003234970840   0.043304877390810   0.498791394285718   1.0
H162   H   0.300126084911220   0.059357979934546   0.532131414285715   1.0
H163   H   0.314796339241283   0.133937467654995   0.585888562857143   1.0
H164   H   0.273885268642758   0.213494989200790   0.558159965714289   1.0
H165   H   0.350253562523690   0.235735813623094   0.579662868571425   1.0
H166   H   0.455621244644455   0.093871385252925   0.522480011428570   1.0
H167   H   0.407682074754540   0.069144607544857   0.557577188571429   1.0
H168   H   0.560862128810456   0.076904971071862   0.550385720000001   1.0
H169   H   0.508595057557457   0.036857058729453   0.587499999999999   1.0
H170   H   0.570658567258853   0.101982580937211   0.598611451428575   1.0
H171   H   0.471149300590312   0.277858391119850   0.559208571428570   1.0
H172   H   0.518137992699380   0.224491316961568   0.529117148571430   1.0
H173   H   0.625869538444086   0.231888847865790   0.529839979999998   1.0
H174   H   0.637108639923248   0.184709556072299   0.576842825714287   1.0
H175   H   0.675119743429484   0.277338191505656   0.569782914285717   1.0
H176   H   0.517041421410923   0.399066637181655   0.573059954285718   1.0
H177   H   0.543667276318082   0.369246926029952   0.526891437142858   1.0
H178   H   0.658100212893942   0.359454237700675   0.519214302857144   1.0
H179   H   0.709758111992493   0.433156699465520   0.533340019999997   1.0
H180   H   0.646290886156720   0.452566726580280   0.500091445714283   1.0
H181   H   0.539802322008015   0.533219090998614   0.572534288571426   1.0
H182   H   0.552157519399209   0.509163643767153   0.525911385714288   1.0
H183   H   0.713808340651127   0.661407470725273   0.534265682857146   1.0
H184   H   0.691183902843676   0.594872722482222   0.503294262857146   1.0
H185   H   0.721767310244431   0.561447984393588   0.546877180000003   1.0
H186   H   0.567339483602751   0.615958121036790   0.491502817142859   1.0
H187   H   0.617993399848679   0.704431304956266   0.503585708571428   1.0
H188   H   0.557016694250109   0.778478604694264   0.567514257142861   1.0
H189   H   0.478513690321464   0.792934828762306   0.560617174285717   1.0
H190   H   0.531906658789040   0.842926693366088   0.530020034285712   1.0
H191   H   0.501615711338843   0.695751575121584   0.455128588571427   1.0
H192   H   0.537394627894862   0.785295377183580   0.466882868571432   1.0
H193   H   0.442218141308373   0.889930502546108   0.497240011428573   1.0
H194   H   0.394722535189416   0.809768106730594   0.517865754285715   1.0
H195   H   0.356301989701947   0.868040522378330   0.485291400000001   1.0
H196   H   0.482773406591257   0.860691446982742   0.432491411428572   1.0
H197   H   0.399664589776670   0.872165627957017   0.426722828571428   1.0
H198   H   0.339131452822905   0.769907665369921   0.379397148571428   1.0
H199   H   0.383025321511603   0.679722763842697   0.371440014285717   1.0
H200   H   0.381607013084924   0.753491681814431   0.339062885714284   1.0
H201   H   0.491249047632387   0.904035894456875   0.372259957142859   1.0
H202   H   0.404314277016425   0.905723387334625   0.367782811428569   1.0
H203   H   0.404401986733283   0.902771684127423   0.264277159999999   1.0
H204   H   0.393245755242781   0.963009980467788   0.305162865714287   1.0
H205   H   0.357101319797785   0.868421579498367   0.302937154285715   1.0
H206   H   0.551733431513370   0.937678328490001   0.325611442857145   1.0
H207   H   0.485566149090793   0.004351807920933   0.326488551428568   1.0
H208   H   0.530790567750856   0.125517774116886   0.250534277142854   1.0
H209   H   0.511421912099024   0.117092025908427   0.297911454285718   1.0
H210   H   0.451956108236814   0.086697725935984   0.262182834285717   1.0
H211   H   0.623330211521811   0.933970505226853   0.277351434285713   1.0
H212   H   0.620976154074256   0.015874389966257   0.310840011428574   1.0
H213   H   0.619319027236465   0.167579901688121   0.255782862857146   1.0
H214   H   0.703071225724429   0.173822085356697   0.246980014285711   1.0
H215   H   0.672302641452013   0.153159963301803   0.295580020000003   1.0
H216   H   0.758871849314396   0.067414719877441   0.289259991428573   1.0
H217   H   0.770495999179943   0.034365044724716   0.246600014285711   1.0
H218   H   0.748938943202504   0.811788322192179   0.260108565714283   1.0
H219   H   0.782051866475300   0.875843226257409   0.225625720000004   1.0
H220   H   0.699211106268727   0.881057180524500   0.240531431428572   1.0
H221   H   0.850280756142567   0.007993060053380   0.303605705714283   1.0
H222   H   0.862372775644708   0.976552771926073   0.259131405714285   1.0
H223   H   0.968471646632622   0.978482427423195   0.294411414285712   1.0
H224   H   0.970133608324772   0.898035589122451   0.259705734285717   1.0
H225   H   0.002127487009240   0.881565264749383   0.301588548571431   1.0
H226   H   0.849486309639545   0.853167009946112   0.357994297142859   1.0
H227   H   0.855588466086452   0.952340139161848   0.356931414285711   1.0
H228   H   0.995141293038230   0.001007391899634   0.353988540000003   1.0
H229   H   0.000819824614588   0.993888248810293   0.404188537142858   1.0
H230   H   0.929514944064515   0.032278264181052   0.383305685714284   1.0
H231   H   0.863181911916939   0.932204331877713   0.423831394285713   1.0
H232   H   0.940695578897561   0.911185383481410   0.438311440000000   1.0
H233   H   0.783801581748925   0.848684951004955   0.459820011428569   1.0
H234   H   0.841892863809058   0.882345500660144   0.489939988571429   1.0
H235   H   0.820945170066025   0.782343673976385   0.494888522857146   1.0
H236   H   0.903342459104699   0.724391756647982   0.403417097142857   1.0
H237   H   0.819843763923203   0.756516059211648   0.401125662857140   1.0
H238   H   0.751410036293038   0.600358719560006   0.453145708571427   1.0
H239   H   0.733990869952649   0.662375298590213   0.414897157142860   1.0
H240   H   0.748573419439687   0.704667237495258   0.459834288571429   1.0
H241   H   0.907075780605638   0.572764925397507   0.395334300000002   1.0
H242   H   0.844632057372216   0.620222484033455   0.369568525714286   1.0
H243   H   0.844904992699199   0.502879186281341   0.330431420000004   1.0
H244   H   0.824785769772006   0.409246503836158   0.352180045714285   1.0
H245   H   0.901924058074961   0.459032775787513   0.360391454285711   1.0
H246   H   0.801279224483125   0.476029408882717   0.451254274285716   1.0
H247   H   0.879723800756409   0.464875714130521   0.438231440000003   1.0
H248   H   0.774302481970054   0.354808932507787   0.486214337142854   1.0
H249   H   0.858273930380953   0.351343035967766   0.493262808571430   1.0
H250   H   0.816963267842191   0.262754946381385   0.479574260000000   1.0
H251   H   0.753369287916264   0.347586878168421   0.385417177142855   1.0
H252   H   0.721128851154624   0.344248002684623   0.429980031428570   1.0
H253   H   0.802024956904120   0.154158016129493   0.452434322857144   1.0
H254   H   0.728697942381025   0.108539311081344   0.439282880000000   1.0
H255   H   0.718794220853738   0.191102925040880   0.467339979999998   1.0
H256   H   0.658767954045253   0.158809375992732   0.376085662857143   1.0
H257   H   0.668072163379122   0.259815364612130   0.363008554285713   1.0
H258   H   0.622472453770619   0.368630051294730   0.432545688571430   1.0
H259   H   0.640773732466286   0.294867139604364   0.464880045714288   1.0
H260   H   0.559282998116196   0.325696891952021   0.459025682857146   1.0
H261   H   0.495479530579118   0.230165014868724   0.401965768571429   1.0
H262   H   0.546888848954765   0.189905400765951   0.370245691428572   1.0
H263   H   0.616867546498710   0.377763415661526   0.356942859999997   1.0
H264   H   0.559400033759175   0.405472230414745   0.325697162857146   1.0
H265   H   0.601807360189454   0.315196533026807   0.318654305714283   1.0
H266   H   0.448422560773693   0.228429072530958   0.340537154285713   1.0
H267   H   0.507196268880506   0.264811501962292   0.307445691428569   1.0
H268   H   0.348654955944312   0.311633840393327   0.263608551428568   1.0
H269   H   0.365216276804304   0.214964780085424   0.290777151428571   1.0
H270   H   0.427547886978317   0.252194016558221   0.261477117142860   1.0
H271   H   0.366722294947841   0.405441890528174   0.357651411428570   1.0
H272   H   0.359518727484264   0.301085025959473   0.366785759999999   1.0
H273   H   0.263426016500468   0.242558568199300   0.299942834285716   1.0
H274   H   0.204557258666036   0.264224737266019   0.330494308571431   1.0
H275   H   0.272057605964058   0.220850064829129   0.350820051428570   1.0
H276   H   0.281415364234313   0.428813776969896   0.386442894285714   1.0
H277   H   0.268636171560345   0.327082008181122   0.401119994285715   1.0
H278   H   0.145681716439192   0.248165701024369   0.376891437142859   1.0
H279   H   0.103191042383443   0.294758228121594   0.408542851428571   1.0
H280   H   0.180712473399346   0.261629872497473   0.423068565714289   1.0
H281   H   0.209959930608335   0.482186845312306   0.424277171428571   1.0
H282   H   0.223801670257949   0.391560315767087   0.448000008571427   1.0
H283   H   0.052151176089779   0.441890891090210   0.414308602857140   1.0
H284   H   0.086627771985405   0.536061882723033   0.421862902857143   1.0
H285   H   0.024423378916829   0.495149047717092   0.453340040000000   1.0
H286   H   0.142872422361606   0.332047920568534   0.480722808571429   1.0
H287   H   0.070316957017134   0.347629218520495   0.457999965714286   1.0
H288   H   0.958923788907121   0.416940423253514   0.505677142857145   1.0
H289   H   0.021167153241308   0.495911174054413   0.513354274285717   1.0
H290   H   0.984891572371694   0.445671279668190   0.548214285714288   1.0
H291   H   0.063318115418021   0.241082783130537   0.510677119999997   1.0
H292   H   0.985720043187534   0.279848375570054   0.503434317142855   1.0
H293   H   0.949497704202059   0.288673242083021   0.613002885714288   1.0
H294   H   0.917954105447130   0.328043714840874   0.573491451428573   1.0
H295   H   0.990871765718204   0.362043108285086   0.594965691428570   1.0
H296   H   0.995511646781566   0.133048326310075   0.539625771428568   1.0
H297   H   0.930216802131696   0.191834820366822   0.528505708571430   1.0
H298   H   0.965518081865497   0.018432969053073   0.586740002857141   1.0
H299   H   0.903815075866447   0.020435074941211   0.549859945714289   1.0
H300   H   0.878154432373940   0.010206867701882   0.595225742857146   1.0
H301   H   0.170955542339527   0.105781139574852   0.412637111428573   1.0
H302   H   0.941465670796489   0.147062976797727   0.611251394285716   1.0
H303   H   0.072392250018936   0.899795762238838   0.544528525714284   1.0
H304   H   0.052560574206410   0.001533132051335   0.548520005714288   1.0
H305   H   0.011344405776924   0.933746694125794   0.512985668571432   1.0
H306   H   0.425418006911123   0.046298975387671   0.394697134285714   1.0
H307   H   0.364324358272633   0.106621885897347   0.370214302857143   1.0
H308   H   0.418770072413302   0.144534622673668   0.409679957142856   1.0
H309   H   0.316263361749982   0.416281087193788   0.484902845714288   1.0
H310   H   0.395965380317762   0.389086471822012   0.485077125714284   1.0
H311   H   0.343166986838490   0.348633265532314   0.448494285714283   1.0
H312   H   0.360659221864992   0.109809515594918   0.676660048571428   1.0
H313   H   0.407540728372076   0.033820680866732   0.688254328571432   1.0
H314   H   0.438972170202995   0.134578627606445   0.691619982857141   1.0
H315   H   0.496239860166263   0.272360163728934   0.684234291428574   1.0
H316   H   0.559580380650324   0.349437732221709   0.694262805714288   1.0
H317   H   0.477836186858369   0.375694865663739   0.686642891428569   1.0
H318   H   0.759115595182926   0.505183668818120   0.637528557142858   1.0
H319   H   0.721552846437405   0.423769292986286   0.661962891428573   1.0
H320   H   0.790542202159486   0.406857340595231   0.634268625714284   1.0
H321   H   0.518342781923828   0.723532949141010   0.643568531428571   1.0
H322   H   0.520165565883566   0.624402045353534   0.657368577142854   1.0
H323   H   0.593453589645662   0.676644045627896   0.655865697142858   1.0
H324   H   0.422376732427139   0.535027604699827   0.571834237142859   1.0
H325   H   0.395668046522083   0.595955335041623   0.613005719999997   1.0
H326   H   0.350521614257858   0.604084767320408   0.571685682857144   1.0
H327   H   0.308211759856235   0.590336207799673   0.472008622857146   1.0
H328   H   0.304273736860061   0.600298257537247   0.419694302857145   1.0
H329   H   0.349824683648094   0.528894278076429   0.442294311428569   1.0
H330   H   0.651666742203140   0.764663486140066   0.360871451428572   1.0
H331   H   0.655755917758171   0.771492482893890   0.408731405714285   1.0
H332   H   0.627653375507428   0.687555692684533   0.392362868571432   1.0
H333   H   0.561768688372879   0.682051471109482   0.272882842857143   1.0
H334   H   0.600369532013048   0.762830741660224   0.249600002857143   1.0
H335   H   0.633526290648895   0.718863425266740   0.288997160000001   1.0
H336   H   0.595149668253690   0.876496556035761   0.170222857142861   1.0
H337   H   0.556236844913236   0.788234958952842   0.188665717142854   1.0
H338   H   0.510105954419963   0.862729886941580   0.168088588571429   1.0
H339   H   0.635202937236414   0.061837872501343   0.138399999999997   1.0
H340   H   0.557060573477770   0.030645166558479   0.157531411428572   1.0
H341   H   0.572037928789136   0.131923252426162   0.152131434285714   1.0
H342   H   0.752448136061538   0.940158287591636   0.394722857142860   1.0
H343   H   0.679257628192694   0.991238928300362   0.399588559999998   1.0
H344   H   0.677044873262993   0.887009030350292   0.386388617142856   1.0
H345   H   0.913962533514571   0.676758951294801   0.247671454285715   1.0
H346   H   0.827237343112813   0.706675452491339   0.238971437142858   1.0
H347   H   0.887614536517972   0.731269087938010   0.205562862857143   1.0
H348   H   0.997353955364865   0.655649207037790   0.333017131428569   1.0
H349   H   0.065428500104723   0.712869229040258   0.331425694285713   1.0
H350   H   0.034879726247425   0.678803391486397   0.374217114285713   1.0
H351   H   0.082218414048746   0.800150773993735   0.483028519999998   1.0
H352   H   0.043645341578099   0.705604834348819   0.497102900000002   1.0
H353   H   0.076170937270291   0.714115208823827   0.449791391428569   1.0
H354   H   0.901578054061872   0.628448591433262   0.544431414285711   1.0
H355   H   0.821651858113732   0.605699688834704   0.560194288571431   1.0
H356   H   0.877164954084407   0.531295556706674   0.535388619999999   1.0
H357   H   0.624592527661420   0.541590335076705   0.362048557142856   1.0
H358   H   0.644940904164848   0.608633276419837   0.323657117142858   1.0
H359   H   0.646388402049979   0.504264302510443   0.313845720000003   1.0
H360   H   0.948605834408838   0.122868453606948   0.427959988571431   1.0
H361   H   0.973433172231147   0.194756292562637   0.390554265714286   1.0
H362   H   0.990286855564783   0.208988705529627   0.440019988571429   1.0
H363   H   0.807283772433721   0.211075486073291   0.281214308571428   1.0
H364   H   0.857060416052569   0.252157791362713   0.319597134285715   1.0
H365   H   0.850280756142567   0.153922083590501   0.315377154285713   1.0
H366   H   0.545694761773056   0.976141598718463   0.414945765714286   1.0
H367   H   0.600428003533011   0.992526728254539   0.454228537142860   1.0
H368   H   0.516880599143342   0.019951161008748   0.460008565714283   1.0
H369   H   0.477426788741738   0.489808072393778   0.444968522857145   1.0
H370   H   0.532598764292132   0.553512144301727   0.417945754285711   1.0
H371   H   0.449606885643618   0.542945214245812   0.400982882857143   1.0
H372   H   0.448753967620640   0.604362919239044   0.306894302857145   1.0
H373   H   0.509131165899639   0.537186950558322   0.290282877142857   1.0
H374   H   0.439566793929750   0.552441641083014   0.260240011428571   1.0
H375   H   0.281771169549955   0.535051835478455   0.262060002857140   1.0
H376   H   0.213581187788321   0.563552880559321   0.294077137142857   1.0
H377   H   0.296933701732989   0.600963593829725   0.300911440000000   1.0
H378   H   0.003353673334949   0.375368137264033   0.323480005714288   1.0
H379   H   0.019467151187960   0.468063343828092   0.341922868571430   1.0
H380   H   0.063089527207829   0.441600623782264   0.301094274285717   1.0
H381   H   0.259278369425480   0.595035968733946   0.523611451428572   1.0
H382   H   0.188288860771891   0.595985566053002   0.548680005714289   1.0
H383   H   0.249954728071096   0.527878115675293   0.557305691428574   1.0
H384   H   0.251095178587214   0.393320488883482   0.563885717142860   1.0
H385   H   0.197708058733788   0.389630896166217   0.605265699999997   1.0
H386   H   0.229294469344296   0.303607325413189   0.591165705714289   1.0
H387   H   0.186447063942332   0.132655147752104   0.603951482857141   1.0
H388   H   0.110716741766687   0.083836703665682   0.614357105714284   1.0
H389   H   0.160699968185000   0.060434598309819   0.573374285714287   1.0
H390   H   0.717151783785155   0.124489496326433   0.605608585714286   1.0
H391   H   0.741277263540276   0.134983861067511   0.653180040000002   1.0
H392   H   0.743972490146561   0.217922592400562   0.628197154285715   1.0
O393   O   0.070370574187351   0.060083754055299   0.471739960000001   1.0
O394   O   0.289827655036511   0.179767880512138   0.419997188571429   1.0
O395   O   0.416815655644442   0.216573707415584   0.475022888571431   1.0
O396   O   0.423785283415874   0.226106359448295   0.627214268571429   1.0
O397   O   0.605618677833917   0.238500033751308   0.637614331428573   1.0
O398   O   0.613470461825237   0.476325791347229   0.625885662857144   1.0
O399   O   0.670718675903387   0.685970996132994   0.598588565714287   1.0
O400   O   0.446809313163563   0.593723423868298   0.510277119999998   1.0
O401   O   0.315239859147631   0.738575822981524   0.464351437142859   1.0
O402   O   0.506031371157242   0.677436390879357   0.368105754285715   1.0
O403   O   0.455913655856556   0.763036443187836   0.272688565714283   1.0
O404   O   0.472177686785472   0.984258685760310   0.213759994285716   1.0
O405   O   0.691369079715351   0.987083361862666   0.194200025714288   1.0
O406   O   0.732324078279980   0.833460600366834   0.325405719999999   1.0
O407   O   0.864580607990831   0.746094259785401   0.311500005714286   1.0
O408   O   0.051848490812148   0.848388568540443   0.388760048571427   1.0
O409   O   0.947962355258561   0.801191167173499   0.505302865714285   1.0
O410   O   0.926858674102306   0.591316030081487   0.468037197142856   1.0
O411   O   0.702886048852761   0.495590566859889   0.410034288571431   1.0
O412   O   0.921063657627471   0.338259927663323   0.389262825714283   1.0
O413   O   0.808219521454596   0.122263633774828   0.381874302857142   1.0
O414   O   0.595919755278778   0.149875597996989   0.474265725714282   1.0
O415   O   0.438762589988791   0.358032787400866   0.408171408571427   1.0
O416   O   0.467932562807988   0.398195720333987   0.259197125714287   1.0
O417   O   0.235065131215045   0.397729976461186   0.278248597142856   1.0
O418   O   0.157919449289032   0.489638710985481   0.350260054285712   1.0
O419   O   0.130293515479195   0.591055993784920   0.486674282857145   1.0
O420   O   0.105311165012701   0.454332899929426   0.571351405714289   1.0
O421   O   0.070310148255494   0.242425552958949   0.619517191428571   1.0
O422   O   0.825818937209235   0.219997263603531   0.565240042857141   1.0
O423   O   0.111785585750233   0.954572056383803   0.504271480000000   1.0
O424   O   0.350029385143337   0.063737121577056   0.425548554285712   1.0
O425   O   0.340218310538027   0.300589063172531   0.505562811428568   1.0
O426   O   0.440736482642769   0.093623397810838   0.636462840000000   1.0
O427   O   0.527242335392373   0.342850777114819   0.636639948571428   1.0
O428   O   0.708963665489470   0.429709033471376   0.600117165714288   1.0
O429   O   0.561919748328677   0.647979518399062   0.603314317142861   1.0
O430   O   0.437490511537391   0.652001948623976   0.565814320000001   1.0
O431   O   0.386027600360741   0.645366544057069   0.445051465714286   1.0
O432   O   0.562002671929626   0.787539403746223   0.389739991428570   1.0
O433   O   0.555739780944350   0.794446966047637   0.296180017142859   1.0
O434   O   0.557635633590195   0.893843912413054   0.222317122857142   1.0
O435   O   0.621341677837073   0.092359247967600   0.196677125714288   1.0
O436   O   0.718399415029410   0.965344687967331   0.346388571428569   1.0
O437   O   0.886425191587563   0.795402672474637   0.252354268571430   1.0
O438   O   0.978150951961133   0.768214057335612   0.354557145714288   1.0
O439   O   0.998065478266938   0.756927347343073   0.452268545714283   1.0
O440   O   0.836609688801531   0.624631856687344   0.500785720000003   1.0
O441   O   0.723614443934409   0.536848239838982   0.348939951428569   1.0
O442   O   0.899014372535504   0.237477756193606   0.430131422857144   1.0
O443   O   0.770252253311412   0.214650288047466   0.338291439999999   1.0
O444   O   0.566169751025129   0.093018523541112   0.419854299999997   1.0
O445   O   0.513312929890503   0.450352924980393   0.388345665714283   1.0
O446   O   0.430691512209926   0.476857985378302   0.305534308571431   1.0
O447   O   0.282404749920787   0.485501490017477   0.314628545714285   1.0
O448   O   0.091846197960450   0.377793640624283   0.348814282857141   1.0
O449   O   0.205196224635735   0.501191578479776   0.506740025714286   1.0
O450   O   0.158038395479302   0.340860786615998   0.552177102857144   1.0
O451   O   0.102911766183951   0.163376115638037   0.569157194285715   1.0
O452   O   0.816383187669295   0.136423420940766   0.618357197142856   1.0


# Number_of_total_atoms: 452
# Number_of_atom_type: 3
# Name_of_each_atom: C H O
# Number_of_each_atom: 150 242 60
# Created_by: Lihua Chen (lihua.chen@mse.gatech.edu)
# Tool: VASP
# K-points: 1 1 1
# Pseudopotential: PBE-HSE06
# Material_class: MC_Pol
# Geometry_class: GC_PD
# Bandgap_(eV): 5.45
