#======================================================================

# Note: Disordered slab of isotactic olymethyl methacrylate
# Common_name: Disordered slab-3

#----------------------------------------------------------------------

data_1
_audit_creation_method   'vasp2cif'
_cell_length_a    21.3741799
_cell_length_b    15.2658768
_cell_length_c    35.0
_cell_angle_alpha    90.0
_cell_angle_beta    90.0
_cell_angle_gamma    90.0

_symmetry_space_group_name_H-M    'P 1'
loop_
_atom_site_label
_atom_site_type_symbol
_atom_site_fract_x
_atom_site_fract_y
_atom_site_fract_z
_atom_site_occupancy
C1   C   0.129355615651015   0.001463256928680   0.305145699999997   1.0
C2   C   0.303615840718173   0.110104235873301   0.314517102857145   1.0
C3   C   0.347056113249984   0.215555126188363   0.389285714285713   1.0
C4   C   0.395591341495162   0.183896328837136   0.495328522857143   1.0
C5   C   0.529884189849078   0.302926419529342   0.497899954285714   1.0
C6   C   0.642375050843469   0.436597077738767   0.458231462857142   1.0
C7   C   0.637345613433340   0.641662324957316   0.427668542857141   1.0
C8   C   0.471650400023066   0.655595347133939   0.391097151428575   1.0
C9   C   0.380975538621719   0.749432138742272   0.318120031428570   1.0
C10   C   0.505228254394922   0.750768393466927   0.238514274285713   1.0
C11   C   0.505887886720743   0.829977725223095   0.153434262857139   1.0
C12   C   0.522917793912647   0.007260500097836   0.094642857142858   1.0
C13   C   0.661528955316783   0.895070612648993   0.051362882857141   1.0
C14   C   0.752980440667109   0.850972346377119   0.145997128571430   1.0
C15   C   0.909356012297806   0.775090592896703   0.136905725714286   1.0
C16   C   0.986037312243262   0.848103189199065   0.225911388571426   1.0
C17   C   0.921646589116619   0.822130242790905   0.318157197142860   1.0
C18   C   0.876929037169752   0.621447338026471   0.318668582857143   1.0
C19   C   0.763207700895229   0.504067863301501   0.227888600000000   1.0
C20   C   0.879867138200702   0.276658743898679   0.272734288571428   1.0
C21   C   0.768195017391051   0.167401992920574   0.222360011428570   1.0
C22   C   0.607533887183202   0.125183664524265   0.294445691428571   1.0
C23   C   0.481306906189182   0.345243012835006   0.259940011428569   1.0
C24   C   0.422820400234400   0.377026369032400   0.153762871428569   1.0
C25   C   0.278702641592346   0.449305171911256   0.179182871428573   1.0
C26   C   0.151719032738185   0.463356143421777   0.230725751428572   1.0
C27   C   0.161123847376245   0.565047033525126   0.356265694285717   1.0
C28   C   0.105453388646737   0.435627654220291   0.423294285714285   1.0
C29   C   0.035301939233705   0.263230101529444   0.453860040000002   1.0
C30   C   0.834466570574712   0.187361593275796   0.420594242857142   1.0
C31   C   0.198527832171941   0.964028335404883   0.301137108571432   1.0
C32   C   0.228660946191440   0.986490274833088   0.262837111428574   1.0
C33   C   0.039331080955300   0.008374107932013   0.342762868571427   1.0
C34   C   0.190358176034629   0.863732792603173   0.298577119999997   1.0
C35   C   0.264582764178940   0.075150468920334   0.347937119999997   1.0
C36   C   0.241859099351927   0.979880723261175   0.337125725714287   1.0
C37   C   0.396751591858738   0.091317270423666   0.279337094285715   1.0
C38   C   0.210293434462955   0.136909155457090   0.354274314285718   1.0
C39   C   0.331270735678615   0.135769371596133   0.413577162857145   1.0
C40   C   0.301538558679390   0.059271970542824   0.385971397142860   1.0
C41   C   0.328763023090303   0.362398915730800   0.374945722857142   1.0
C42   C   0.282487544703414   0.148516703606567   0.444794245714284   1.0
C43   C   0.435176481320809   0.153449286319407   0.461922891428571   1.0
C44   C   0.394716383948840   0.097789201338244   0.432039968571431   1.0
C45   C   0.339748211813266   0.146544992423891   0.550108557142856   1.0
C46   C   0.486233364209681   0.088192661164406   0.477811431428570   1.0
C47   C   0.531666681630206   0.278689423197754   0.454177097142860   1.0
C48   C   0.468693561431095   0.226527276834830   0.440051380000000   1.0
C49   C   0.490163325517813   0.392642864771446   0.547851454285713   1.0
C50   C   0.589222096890836   0.219079365293972   0.445402854285717   1.0
C51   C   0.602902177313482   0.414076288104198   0.422339957142860   1.0
C52   C   0.540200333019563   0.368301052973258   0.431165748571431   1.0
C53   C   0.747726400487537   0.432968134526014   0.481482805714286   1.0
C54   C   0.637659099145132   0.366126182807918   0.390314265714288   1.0
C55   C   0.619351954645055   0.588163923869736   0.390880039999999   1.0
C56   C   0.578138616677407   0.504454306876106   0.403845760000003   1.0
C57   C   0.605124512870781   0.681424227136432   0.490971374285714   1.0
C58   C   0.681019817747490   0.565119128958251   0.367434257142854   1.0
C59   C   0.523067530651787   0.712008772401468   0.370554245714288   1.0
C60   C   0.587481726024023   0.658209012927443   0.363062831428571   1.0
C61   C   0.419208570430342   0.642481190467883   0.451434325714288   1.0
C62   C   0.539947705783085   0.795842830331239   0.394577137142861   1.0
C63   C   0.445235356141076   0.804109613933214   0.321211460000001   1.0
C64   C   0.502561433947697   0.742043070857221   0.330311477142857   1.0
C65   C   0.333535145364806   0.627447674672709   0.292268588571432   1.0
C66   C   0.430352913797641   0.876591569244162   0.353765760000002   1.0
C67   C   0.461820778443062   0.835296751510533   0.242622811428575   1.0
C68   C   0.459350452084479   0.864682603753231   0.285508622857144   1.0
C69   C   0.606776000795243   0.704154667355887   0.248614285714282   1.0
C70   C   0.395343355372432   0.814714939924052   0.226285662857144   1.0
C71   C   0.493471129622151   0.919202904873437   0.174428557142861   1.0
C72   C   0.492671038106124   0.908708905603113   0.219982911428573   1.0
C73   C   0.582845286148263   0.725319465436797   0.132420022857140   1.0
C74   C   0.429534168934360   0.965842865966273   0.164277159999998   1.0
C75   C   0.573249549565176   0.025333481009099   0.124248559999998   1.0
C76   C   0.545875390521999   0.995988484591990   0.165585708571427   1.0
C77   C   0.474925365440569   0.910366131082625   0.049557168571425   1.0
C78   C   0.582817177467476   0.121194335853673   0.127511434285715   1.0
C79   C   0.680032598584049   0.974332427469875   0.079702868571431   1.0
C80   C   0.637294126077791   0.974384779523440   0.116728591428569   1.0
C81   C   0.664032026791354   0.855878694108156   0.984340014285713   1.0
C82   C   0.673903685071913   0.062940269503550   0.060871451428568   1.0
C83   C   0.784710303668774   0.884753530828966   0.109528568571427   1.0
C84   C   0.753874051560686   0.969301507791549   0.091205705714287   1.0
C85   C   0.712450202592336   0.904175887231055   0.205780028571425   1.0
C86   C   0.781107840305957   0.806828101743882   0.081302862857143   1.0
C87   C   0.906436653506411   0.876198503056173   0.143105697142858   1.0
C88   C   0.857704903101336   0.916864362484574   0.114534268571425   1.0
C89   C   0.951327231974872   0.666724802862291   0.096314294285712   1.0
C90   C   0.970265993690830   0.915521498247649   0.132080025714288   1.0
C91   C   0.929567370208204   0.912396816932258   0.221480017142859   1.0
C92   C   0.885453322117868   0.901169155249569   0.184637125714289   1.0
C93   C   0.033520808908321   0.704803120119507   0.206968580000002   1.0
C94   C   0.955360172672634   0.005943864292156   0.222031402857141   1.0
C95   C   0.869593115944532   0.827023469755765   0.285751451428574   1.0
C96   C   0.883792458395092   0.910641254487260   0.257448577142860   1.0
C97   C   0.022169262269564   0.772254286763271   0.331588528571430   1.0
C98   C   0.808575518726684   0.851529091339188   0.307591465714289   1.0
C99   C   0.841896104748329   0.643745356309964   0.281245748571429   1.0
C100   C   0.865410443186171   0.734660625585555   0.262860000000003   1.0
C101   C   0.858977499295776   0.591851835198881   0.384319959999999   1.0
C102   C   0.771778832085154   0.656211066762964   0.287111445714288   1.0
C103   C   0.831425583724972   0.487200198025967   0.241502817142859   1.0
C104   C   0.860535472521214   0.580912417687010   0.247442845714289   1.0
C105   C   0.704230041593313   0.565892016107455   0.176628548571429   1.0
C106   C   0.872292597293992   0.443082188374532   0.209108625714286   1.0
C107   C   0.820940966254334   0.331565488593490   0.285051400000000   1.0
C108   C   0.832281714817981   0.433407061165333   0.280322811428569   1.0
C109   C   0.972338587830450   0.198995317452059   0.295791408571425   1.0
C110   C   0.810156870626884   0.326960505799441   0.329248591428573   1.0
C111   C   0.736488537742680   0.210733863645487   0.257519968571430   1.0
C112   C   0.761172581877631   0.304531299505840   0.260677119999997   1.0
C113   C   0.814077549707534   0.192687130817141   0.161397117142855   1.0
C114   C   0.748404863945211   0.147134594981139   0.292654311428571   1.0
C115   C   0.607964359839599   0.207746875043561   0.268211474285714   1.0
C116   C   0.666609880082461   0.210688009744715   0.241451482857144   1.0
C117   C   0.623586030545198   0.967722869347405   0.299088614285715   1.0
C118   C   0.604142019034846   0.290539420572294   0.295320019999998   1.0
C119   C   0.507820119919550   0.288973771883185   0.226817102857140   1.0
C120   C   0.545374777162799   0.203646278607465   0.241971479999997   1.0
C121   C   0.477877474026499   0.485752492120206   0.291022820000002   1.0
C122   C   0.552823044218883   0.344555204323413   0.202348545714287   1.0
C123   C   0.396962098180900   0.303077095447279   0.181517137142855   1.0
C124   C   0.450620306606474   0.248681366274354   0.203662871428570   1.0
C125   C   0.452908141752843   0.526064641108590   0.150714274285711   1.0
C126   C   0.366560941128789   0.232855213399859   0.156928579999999   1.0
C127   C   0.280059381366016   0.372074173951148   0.207351465714282   1.0
C128   C   0.352005996730661   0.347267193981288   0.214214325714288   1.0
C129   C   0.294590947089389   0.604317545651881   0.173311451428574   1.0
C130   C   0.241947982294285   0.291613672658485   0.193142865714286   1.0
C131   C   0.192818148779594   0.415976028314340   0.263345662857141   1.0
C132   C   0.261069183758487   0.399403098811852   0.250054277142858   1.0
C133   C   0.087350242616793   0.444647712603050   0.175782831428570   1.0
C134   C   0.161215046196929   0.328932210431567   0.273582894285717   1.0
C135   C   0.134654990903300   0.499711762379739   0.326759994285716   1.0
C136   C   0.194590375839404   0.473876384224454   0.301500048571427   1.0
C137   C   0.242631040080276   0.590587669356800   0.403645760000003   1.0
C138   C   0.083191032746946   0.546096212436353   0.302031382857145   1.0
C139   C   0.067817324771369   0.421065791648466   0.386894337142856   1.0
C140   C   0.105130578600587   0.418563452575484   0.349431391428574   1.0
C141   C   0.192434966826497   0.376554715809050   0.454908537142856   1.0
C142   C   0.018485373560459   0.491916632001114   0.385357122857144   1.0
C143   C   0.990028132026715   0.295747002229184   0.423017119999997   1.0
C144   C   0.032120516586460   0.333124514669215   0.390897151428568   1.0
C145   C   0.093332226515038   0.141750030368385   0.471751405714286   1.0
C146   C   0.940337360031293   0.364455836562236   0.435891397142861   1.0
C147   C   0.904345312448690   0.163589516194705   0.428097097142860   1.0
C148   C   0.954045455563886   0.215614100855312   0.405077142857145   1.0
C149   C   0.737630134758994   0.133653541603323   0.400919997142857   1.0
C150   C   0.919513131823130   0.063811493618239   0.424817114285716   1.0
H151   H   0.274374952743798   0.958172176523789   0.259005737142857   1.0
H152   H   0.200494237442065   0.960844810433684   0.238891382857140   1.0
H153   H   0.175695166671638   0.828222162778097   0.324034337142855   1.0
H154   H   0.235267052281152   0.832892749403037   0.292702811428569   1.0
H155   H   0.154851798547838   0.839168209453909   0.277531434285713   1.0
H156   H   0.279572822347212   0.935258320701237   0.334668622857144   1.0
H157   H   0.217581213490206   0.952892381523739   0.359679957142859   1.0
H158   H   0.178571515625727   0.117008523218267   0.378951482857140   1.0
H159   H   0.182788767488574   0.139280430980548   0.329137094285713   1.0
H160   H   0.227271409837812   0.203901665183096   0.357485745714285   1.0
H161   H   0.339345889944532   0.016247890851574   0.380805751428575   1.0
H162   H   0.271521051434590   0.019090819598389   0.401731437142857   1.0
H163   H   0.283830276922110   0.090819441173529   0.462114280000001   1.0
H164   H   0.234172259399763   0.154772485783454   0.433625685714283   1.0
H165   H   0.284990569392562   0.215515770440383   0.458731405714289   1.0
H166   H   0.422600522792457   0.079329711346816   0.408382851428570   1.0
H167   H   0.384783867192958   0.037452044680457   0.447157179999998   1.0
H168   H   0.520541080502461   0.076355784556050   0.455559977142855   1.0
H169   H   0.468885330192251   0.020630233305695   0.482314302857141   1.0
H170   H   0.511132565137622   0.104346341901568   0.504128594285717   1.0
H171   H   0.436477097303744   0.276678356267098   0.433957128571428   1.0
H172   H   0.478874064309714   0.204144048902585   0.411345674285712   1.0
H173   H   0.593460902797027   0.195182840726190   0.415665762857145   1.0
H174   H   0.594008278184276   0.169537500787378   0.466751425714286   1.0
H175   H   0.629513719962652   0.256718880372468   0.453085765714285   1.0
H176   H   0.505396644481316   0.411796720382284   0.442219979999997   1.0
H177   H   0.519287221869035   0.362805102684966   0.402774265714285   1.0
H178   H   0.677412629057173   0.401007978788350   0.377714320000003   1.0
H179   H   0.603388773760628   0.355311330692778   0.367831422857144   1.0
H180   H   0.656480869237932   0.303614221490378   0.400519997142858   1.0
H181   H   0.545674250641071   0.526641122899669   0.424388559999997   1.0
H182   H   0.552238193709599   0.492741995664474   0.377711377142859   1.0
H183   H   0.709287494113397   0.627139693672888   0.363994271428574   1.0
H184   H   0.671480209633678   0.546587484578680   0.337645722857140   1.0
H185   H   0.713465441544265   0.519671362734961   0.382634299999999   1.0
H186   H   0.575270656349254   0.616226511142813   0.341520039999999   1.0
H187   H   0.621691192933206   0.696575692265512   0.347374288571430   1.0
H188   H   0.496484096683403   0.829676366836658   0.404802814285716   1.0
H189   H   0.567728865237072   0.840936886114527   0.378857094285714   1.0
H190   H   0.570236577825376   0.789848991837793   0.419762857142857   1.0
H191   H   0.497008093395898   0.688754326905091   0.311568559999998   1.0
H192   H   0.539531329573961   0.774618939673353   0.316051374285713   1.0
H193   H   0.472464414880314   0.916117585856583   0.358162908571430   1.0
H194   H   0.409931049565088   0.852131683651479   0.378697097142854   1.0
H195   H   0.398927076495696   0.924764321430921   0.342448537142857   1.0
H196   H   0.494542497043362   0.910071395309572   0.295468577142856   1.0
H197   H   0.420925651514708   0.909377101746294   0.285571400000002   1.0
H198   H   0.360179442487052   0.862108175797673   0.235637120000000   1.0
H199   H   0.384507861281733   0.746779117200788   0.233740017142857   1.0
H200   H   0.396503605736001   0.816771860755487   0.194762857142855   1.0
H201   H   0.544312776182821   0.910182715479536   0.225988554285713   1.0
H202   H   0.473788498430295   0.963812186667198   0.233159965714286   1.0
H203   H   0.405201001419478   0.998910131385315   0.188145720000001   1.0
H204   H   0.394379608454592   0.913785548171070   0.155908585714286   1.0
H205   H   0.433286280144017   0.014027232291042   0.142571422857145   1.0
H206   H   0.588983481887880   0.976841264695651   0.178985705714282   1.0
H207   H   0.524747136614117   0.049819483673545   0.180451419999997   1.0
H208   H   0.588267716414236   0.159862308072604   0.101608548571427   1.0
H209   H   0.619403357786844   0.139024985449900   0.147154291428571   1.0
H210   H   0.541861192063791   0.145719628760531   0.142585702857140   1.0
H211   H   0.632311450695703   0.903285050747954   0.123737117142859   1.0
H212   H   0.667194735270286   0.002000448477354   0.138260000000002   1.0
H213   H   0.627403730236217   0.078687763286546   0.050868551428572   1.0
H214   H   0.713044424221394   0.072746460262273   0.043145697142855   1.0
H215   H   0.679003347398606   0.116294545230446   0.080922862857143   1.0
H216   H   0.764686166976631   0.029466876085365   0.108325739999998   1.0
H217   H   0.777421139793063   0.980542290240415   0.063965717142857   1.0
H218   H   0.812921940457699   0.751482436960316   0.089911434285718   1.0
H219   H   0.793833442002608   0.820872457191584   0.052388545714287   1.0
H220   H   0.737185649869076   0.775038247393688   0.081145697142858   1.0
H221   H   0.861068835674956   0.985658282005787   0.122348568571425   1.0
H222   H   0.875179295183159   0.905092958695960   0.086402839999998   1.0
H223   H   0.975131682128307   0.981125263633729   0.140531434285712   1.0
H224   H   0.977952786857564   0.914650274132960   0.101065717142859   1.0
H225   H   0.007479571181115   0.881635478677516   0.148525728571428   1.0
H226   H   0.846555923298837   0.863156310812101   0.190671431428569   1.0
H227   H   0.857737652895864   0.959704967617711   0.179505702857142   1.0
H228   H   0.975215830386084   0.019758950235996   0.249951391428574   1.0
H229   H   0.923143703866742   0.057627741368904   0.211045728571428   1.0
H230   H   0.996872806333961   0.005504944203402   0.202377102857142   1.0
H231   H   0.842775703408392   0.948234922215541   0.249114337142856   1.0
H232   H   0.906824916356207   0.952800673722194   0.277102880000001   1.0
H233   H   0.767638275562561   0.846852019662570   0.289297157142855   1.0
H234   H   0.811424825707583   0.920578515346072   0.319025748571427   1.0
H235   H   0.804926293335818   0.807371725939774   0.332168580000001   1.0
H236   H   0.909734997598669   0.720668622191425   0.251974271428573   1.0
H237   H   0.839112381570253   0.752982488369092   0.239005717142860   1.0
H238   H   0.750402587375994   0.596659976975580   0.298497120000000   1.0
H239   H   0.742201079724232   0.677002528934338   0.263802882857142   1.0
H240   H   0.758622748375018   0.701161062691142   0.310148622857142   1.0
H241   H   0.911030972467863   0.576517085477853   0.246240017142860   1.0
H242   H   0.852165570104518   0.616475399565651   0.221877180000000   1.0
H243   H   0.878435523039649   0.486754779784413   0.185042845714285   1.0
H244   H   0.848754875502848   0.387854472924872   0.193294308571431   1.0
H245   H   0.919148247648089   0.422153157950284   0.219465745714288   1.0
H246   H   0.799452375714310   0.466028777331680   0.298922840000003   1.0
H247   H   0.875132537833650   0.448787664787126   0.297334288571427   1.0
H248   H   0.764962172887856   0.355494746295868   0.337748608571431   1.0
H249   H   0.841526490567247   0.366971289850838   0.346408517142855   1.0
H250   H   0.814844797858186   0.263007330178375   0.342785754285714   1.0
H251   H   0.766894401408123   0.334120173169481   0.231162805714284   1.0
H252   H   0.723922039226402   0.346461442686348   0.272662900000000   1.0
H253   H   0.797510776074269   0.127450118030559   0.293354251428575   1.0
H254   H   0.731440451663829   0.080849447180135   0.284751457142860   1.0
H255   H   0.731487209013338   0.173815014673771   0.319854300000003   1.0
H256   H   0.662605052744034   0.149427276918679   0.226274325714286   1.0
H257   H   0.656593126176503   0.258867384544857   0.220342908571432   1.0
H258   H   0.608525742781829   0.351931151442280   0.278951482857145   1.0
H259   H   0.643034683169297   0.291410638136419   0.315422820000002   1.0
H260   H   0.560318077981556   0.287473720474409   0.313040051428572   1.0
H261   H   0.510238954244038   0.172786492027761   0.259662845714288   1.0
H262   H   0.556439604028974   0.165128923351460   0.216522871428573   1.0
H263   H   0.591233926125980   0.371065388134142   0.218579974285717   1.0
H264   H   0.528307479062626   0.401342076859940   0.187391445714283   1.0
H265   H   0.574058918630136   0.304269290316817   0.180082865714283   1.0
H266   H   0.422511644528640   0.202788057348926   0.221397182857146   1.0
H267   H   0.472796638153120   0.208244769799272   0.181428582857144   1.0
H268   H   0.340337750221707   0.256365045471874   0.132325691428569   1.0
H269   H   0.331804056725467   0.198838136830766   0.174091448571431   1.0
H270   H   0.402553007425560   0.190525499328018   0.143911417142860   1.0
H271   H   0.372483989432503   0.407892535854870   0.225688611428573   1.0
H272   H   0.355575752405827   0.302441770000399   0.238468605714289   1.0
H273   H   0.246139979386996   0.281263726692721   0.162617165714288   1.0
H274   H   0.194033634010914   0.302441770000399   0.193871417142859   1.0
H275   H   0.259422327590684   0.230542788082765   0.206605748571427   1.0
H276   H   0.287362599582124   0.452501935558658   0.259525734285717   1.0
H277   H   0.275460383862494   0.349749789674711   0.271357182857145   1.0
H278   H   0.115568883183208   0.344692766025730   0.279125759999999   1.0
H279   H   0.182288650054829   0.298924029047583   0.297225734285718   1.0
H280   H   0.166458784226855   0.276639124979709   0.252797154285716   1.0
H281   H   0.219249572237388   0.530859662119113   0.292094311428571   1.0
H282   H   0.234471690771166   0.445080134539012   0.317419979999997   1.0
H283   H   0.064150770060657   0.511018004547239   0.279777091428571   1.0
H284   H   0.103318569897503   0.607835286604697   0.291288539999996   1.0
H285   H   0.043582490853837   0.566599436987467   0.320277185714289   1.0
H286   H   0.145731911800745   0.374609246158727   0.352871377142854   1.0
H287   H   0.072313885596145   0.383432768172213   0.329945700000003   1.0
H288   H   0.986781186397707   0.479804631988124   0.363245720000002   1.0
H289   H   0.040397816619858   0.557546645470111   0.382745688571425   1.0
H290   H   0.992746350937189   0.510756001908781   0.412431445714283   1.0
H291   H   0.066794141654995   0.282835873534630   0.383922905714286   1.0
H292   H   0.997496034923891   0.334794985375488   0.367662811428573   1.0
H293   H   0.907152414301521   0.345013743331137   0.457642908571429   1.0
H294   H   0.911461360910508   0.382882534464052   0.412311445714288   1.0
H295   H   0.969933765739476   0.419251254536526   0.448202842857143   1.0
H296   H   0.987295900882728   0.168633543538093   0.396571462857146   1.0
H297   H   0.934592077612294   0.228878939989876   0.376468548571431   1.0
H298   H   0.898721742301795   0.042509068329437   0.398539954285717   1.0
H299   H   0.890978727094925   0.024586769886682   0.444417137142857   1.0
H300   H   0.966092687373703   0.039751290276364   0.426785714285714   1.0
H301   H   0.228876140412758   0.057300200405130   0.257237134285717   1.0
H302   H   0.908944277202423   0.173258145251111   0.459042902857142   1.0
H303   H   0.025258971456488   0.983149451330569   0.371665737142855   1.0
H304   H   0.035148946229278   0.078858123629033   0.341454314285713   1.0
H305   H   0.009521759475788   0.974037560685673   0.324225725714285   1.0
H306   H   0.441235165237849   0.059697717460942   0.285700011428574   1.0
H307   H   0.379632801724476   0.080567825622701   0.249328614285716   1.0
H308   H   0.411386043400896   0.162253261470049   0.279479979999998   1.0
H309   H   0.291194311506658   0.408567348060871   0.375679997142861   1.0
H310   H   0.367730609397554   0.394031596010258   0.387734331428568   1.0
H311   H   0.332454364716938   0.350195332376849   0.344422802857146   1.0
H312   H   0.300064827282569   0.186189017325226   0.545731462857141   1.0
H313   H   0.325876371986560   0.084576714257253   0.565425765714288   1.0
H314   H   0.372671121758451   0.179153659880186   0.570219965714287   1.0
H315   H   0.510936066370434   0.352193154080737   0.569571468571425   1.0
H316   H   0.511474070637910   0.456700737949099   0.554262871428570   1.0
H317   H   0.441609425211212   0.409772663696593   0.557394299999999   1.0
H318   H   0.727229754438440   0.405305111593719   0.507174248571431   1.0
H319   H   0.795662784704078   0.406307392707376   0.475025722857140   1.0
H320   H   0.748933492414366   0.503746885996094   0.483191462857142   1.0
H321   H   0.628835345397277   0.742364048162635   0.489280045714288   1.0
H322   H   0.560968432758443   0.680710183643036   0.505968585714285   1.0
H323   H   0.633242536711315   0.629294944919245   0.502517157142854   1.0
H324   H   0.439593043754627   0.572291923645025   0.458997125714284   1.0
H325   H   0.414506635644066   0.676190286037155   0.478542874285715   1.0
H326   H   0.375772985797688   0.635956848544723   0.438297162857140   1.0
H327   H   0.311157678615778   0.609302604878877   0.320099965714285   1.0
H328   H   0.309819582832276   0.660495196712183   0.267591422857144   1.0
H329   H   0.353423599658200   0.566344056962386   0.281799971428569   1.0
H330   H   0.612469800537234   0.680408825256599   0.219505745714287   1.0
H331   H   0.648092233938762   0.736226149814073   0.258719962857143   1.0
H332   H   0.599809693751105   0.647053446677887   0.265014322857141   1.0
H333   H   0.563288924128500   0.662794383353074   0.143794305714287   1.0
H334   H   0.579289584813495   0.733442189183656   0.101442882857142   1.0
H335   H   0.632241309992907   0.717583309725129   0.137982831428573   1.0
H336   H   0.477615480348795   0.845764640259638   0.040122877142856   1.0
H337   H   0.426174966366780   0.915023603491939   0.062362834285714   1.0
H338   H   0.486102369710103   0.956927505140094   0.026702880000002   1.0
H339   H   0.684444519904133   0.792220385271285   0.990728597142855   1.0
H340   H   0.614158772940804   0.859075333294975   0.976214271428574   1.0
H341   H   0.686769745958770   0.879165879289687   0.956668582857141   1.0
H342   H   0.738977601662278   0.845653202179648   0.220145742857142   1.0
H343   H   0.712885316362474   0.957680904381462   0.225494279999999   1.0
H344   H   0.665936146630827   0.872870800319838   0.204011425714285   1.0
H345   H   0.907910384903232   0.631928216530611   0.099774279999998   1.0
H346   H   0.951631351245432   0.667058900933881   0.066077151428573   1.0
H347   H   0.989504135314213   0.624178946603315   0.106945691428571   1.0
H348   H   0.003427958421931   0.647145154479432   0.214245714285717   1.0
H349   H   0.050288694351259   0.692206470577567   0.179459979999997   1.0
H350   H   0.066534487248326   0.713371262107920   0.230965751428570   1.0
H351   H   0.059022615412722   0.732767501438239   0.317514257142854   1.0
H352   H   0.043658273878378   0.834857955882363   0.337605722857141   1.0
H353   H   0.007731281423340   0.740470924015320   0.357554299999997   1.0
H354   H   0.826456915897857   0.540482443825304   0.387954277142860   1.0
H355   H   0.906937266865619   0.566992509726006   0.385157122857144   1.0
H356   H   0.854238168922684   0.630008863952050   0.411620002857141   1.0
H357   H   0.714826916002515   0.569573435834357   0.146811402857146   1.0
H358   H   0.662160567854116   0.522887620840748   0.181082862857146   1.0
H359   H   0.692150059988968   0.627794762499327   0.186940002857142   1.0
H360   H   0.015898149149571   0.218168785431310   0.309217179999997   1.0
H361   H   0.960403617637745   0.135160156670466   0.304831477142855   1.0
H362   H   0.983931963630567   0.198333750472820   0.265374319999999   1.0
H363   H   0.797936518724633   0.135212567679048   0.143602862857143   1.0
H364   H   0.813286824632740   0.245949757697510   0.141088594285712   1.0
H365   H   0.859075748679366   0.177902490343690   0.172145734285714   1.0
H366   H   0.591275958147989   0.962678959914051   0.323351397142858   1.0
H367   H   0.615188019447707   0.912920953220322   0.279522814285713   1.0
H368   H   0.672612435530219   0.958676569432292   0.309365737142855   1.0
H369   H   0.508264600130929   0.492427516511860   0.314457157142854   1.0
H370   H   0.473699531274178   0.548500345554999   0.277702877142858   1.0
H371   H   0.430731810206204   0.470909014541505   0.300657108571429   1.0
H372   H   0.452243779420982   0.580283590392924   0.171645737142860   1.0
H373   H   0.502874919659490   0.510756001908781   0.147831454285715   1.0
H374   H   0.438699432861050   0.561640743753415   0.124008560000000   1.0
H375   H   0.333586590613471   0.650263206630882   0.181937137142860   1.0
H376   H   0.284943812043053   0.596588006003039   0.143268585714289   1.0
H377   H   0.253583521115587   0.638419831869726   0.182771411428568   1.0
H378   H   0.115366760808449   0.492958144402159   0.160605731428575   1.0
H379   H   0.076248062270686   0.393953008974890   0.154851422857142   1.0
H380   H   0.043935711423479   0.472592481553370   0.184440014285713   1.0
H381   H   0.215517985791820   0.637777877258905   0.417717088571429   1.0
H382   H   0.276756358731689   0.555398016837131   0.422302899999998   1.0
H383   H   0.267740784758715   0.633598569326857   0.384254237142855   1.0
H384   H   0.213043022998043   0.437062232809318   0.465817151428574   1.0
H385   H   0.172548388628471   0.341515739207331   0.478848594285715   1.0
H386   H   0.237901034041542   0.350699725285352   0.447711400000003   1.0
H387   H   0.104154625366469   0.073801093429495   0.466205705714287   1.0
H388   H   0.140062927045918   0.166668337058766   0.475700051428575   1.0
H389   H   0.065612814459378   0.147501426187326   0.498182897142854   1.0
H390   H   0.718593128337993   0.132028983752839   0.431894248571432   1.0
H391   H   0.715028144775744   0.194337858143854   0.390131380000000   1.0
H392   H   0.714214045704743   0.076624344302317   0.385177177142857   1.0
O393   O   0.103940815993603   0.039764404491983   0.278620040000000   1.0
O394   O   0.287039789535974   0.173022384145007   0.295662908571430   1.0
O395   O   0.389757176133806   0.213360643654610   0.364928545714285   1.0
O396   O   0.379960299669790   0.261900344957589   0.498234340000003   1.0
O397   O   0.557964743246124   0.257373949198907   0.521062905714288   1.0
O398   O   0.615202031681221   0.466985211095114   0.485748617142860   1.0
O399   O   0.688818877209883   0.672934672183388   0.432331411428571   1.0
O400   O   0.443930010152108   0.590744849978087   0.376528602857142   1.0
O401   O   0.330896433598369   0.773151621399172   0.332879965714284   1.0
O402   O   0.486645103983612   0.678515832120432   0.228359988571427   1.0
O403   O   0.464141269813119   0.794964990153730   0.134897122857140   1.0
O404   O   0.490547040824708   0.067447046343254   0.081980022857145   1.0
O405   O   0.634313908811066   0.825739567084675   0.061191451428570   1.0
O406   O   0.730050863846245   0.775319862400565   0.149157171428570   1.0
O407   O   0.872021232496500   0.727893893392356   0.153985705714284   1.0
O408   O   0.030691221982273   0.864787432320952   0.247280011428572   1.0
O409   O   0.913608825758971   0.862481623066685   0.350074331428573   1.0
O410   O   0.929300637167373   0.586762078415305   0.318237197142857   1.0
O411   O   0.719823603618117   0.493809749597872   0.247659957142858   1.0
O412   O   0.890450005054930   0.259188361850271   0.239071437142854   1.0
O413   O   0.782581576381325   0.085493785722157   0.223665728571426   1.0
O414   O   0.598766346118381   0.132657817597483   0.328794317142858   1.0
O415   O   0.444449361072330   0.308500950302445   0.283714297142858   1.0
O416   O   0.452346669918313   0.357682606216237   0.123082842857144   1.0
O417   O   0.255978929979904   0.440861595319568   0.146154294285715   1.0
O418   O   0.162005724486299   0.539788019250885   0.224105725714288   1.0
O419   O   0.141958204440861   0.643018316510975   0.354079982857144   1.0
O420   O   0.094630521941099   0.496148291986742   0.446308571428574   1.0
O421   O   0.041233862731737   0.302448261602635   0.483039965714283   1.0
O422   O   0.811878592824982   0.250594102790089   0.438377162857144   1.0
O423   O   0.103764439635881   0.988422623717234   0.337479945714286   1.0
O424   O   0.355809684188166   0.063614950698408   0.308068519999999   1.0
O425   O   0.313684086658221   0.286327372955085   0.396488628571426   1.0
O426   O   0.369513143285559   0.124594127472584   0.515705762857145   1.0
O427   O   0.492441789544401   0.371170216701870   0.506828525714283   1.0
O428   O   0.703041682548950   0.413886374348308   0.452231380000001   1.0
O429   O   0.593077187490124   0.645435445935213   0.453971428571428   1.0
O430   O   0.465731992833092   0.679445899890922   0.427168600000002   1.0
O431   O   0.385972226237321   0.676550619090548   0.298971448571429   1.0
O432   O   0.563766158812953   0.767295469068635   0.251117162857142   1.0
O433   O   0.566039892833501   0.798168251953925   0.154705702857143   1.0
O434   O   0.522665166676170   0.929493876172252   0.076745714285714   1.0
O435   O   0.677529616001785   0.913949351405748   0.016037151428570   1.0
O436   O   0.744685413637789   0.914342411043172   0.170334297142858   1.0
O437   O   0.945581944877333   0.754266391040183   0.109502848571431   1.0
O438   O   0.985826805921100   0.775503278003661   0.204977091428575   1.0
O439   O   0.968787527609422   0.772562143302508   0.309008571428571   1.0
O440   O   0.841807221805972   0.634712177161028   0.349657114285712   1.0
O441   O   0.760877833726852   0.534252837675197   0.193442862857140   1.0
O442   O   0.919704989476578   0.259941754541082   0.302205768571426   1.0
O443   O   0.775933396162721   0.217965757459801   0.191388594285712   1.0
O444   O   0.621101696631648   0.046033241929479   0.277651434285715   1.0
O445   O   0.502117037950072   0.429758381123577   0.261997114285712   1.0
O446   O   0.416752345197580   0.456360148275273   0.167237148571431   1.0
O447   O   0.296261181931946   0.524892058607470   0.194677134285712   1.0
O448   O   0.116350190352797   0.411718133346916   0.209794291428572   1.0
O449   O   0.204574871197750   0.532490783627971   0.381308528571431   1.0
O450   O   0.153976438646893   0.377432555986566   0.424257114285716   1.0
O451   O   0.065404132768620   0.189693513051274   0.443837194285713   1.0
O452   O   0.805876037377232   0.133515979901006   0.398394342857145   1.0


# Number_of_total_atoms: 452
# Number_of_atom_type: 3
# Name_of_each_atom: C H O
# Number_of_each_atom: 150 242 60
# Created_by: Lihua Chen (lihua.chen@mse.gatech.edu)
# Tool: VASP
# K-points: 1 1 1
# Pseudopotential: PBE-HSE06
# Material_class: MC_Pol
# Geometry_class: GC_PD
# Bandgap_(eV): 5.62
