#======================================================================

# Note: Disordered slab of isotactic polymethyl methacrylate
# Common_name: Disordered slab-4

#----------------------------------------------------------------------

data_1
_audit_creation_method   'vasp2cif'
_cell_length_a    21.2497025
_cell_length_b    15.6283493
_cell_length_c    35.0
_cell_angle_alpha    90.0
_cell_angle_beta    90.0
_cell_angle_gamma    90.0

_symmetry_space_group_name_H-M    'P 1'
loop_
_atom_site_label
_atom_site_type_symbol
_atom_site_fract_x
_atom_site_fract_y
_atom_site_fract_z
_atom_site_occupancy
C1   C   0.103787405964859   0.990973128556831   0.478965760000001   1.0
C2   C   0.285100551407723   0.114860147130187   0.469731468571432   1.0
C3   C   0.316465701108051   0.250383103479777   0.537945665714282   1.0
C4   C   0.327369383171366   0.273277357577363   0.644442859999998   1.0
C5   C   0.486237456736156   0.355237453004712   0.653088599999997   1.0
C6   C   0.607241480204252   0.437510953252115   0.603854259999999   1.0
C7   C   0.630126577066200   0.637397680892633   0.559508622857145   1.0
C8   C   0.451013438894030   0.658717929986373   0.516437094285713   1.0
C9   C   0.386734891935546   0.729550772198316   0.435159957142858   1.0
C10   C   0.508058952825337   0.750826243690369   0.371551405714286   1.0
C11   C   0.527645137620162   0.824224935899018   0.286828559999997   1.0
C12   C   0.554826628749275   0.985617463771433   0.220762854285716   1.0
C13   C   0.709953511113859   0.880929580963489   0.194360025714289   1.0
C14   C   0.780575718648294   0.836740563509160   0.288919994285713   1.0
C15   C   0.947895708186977   0.811952296203160   0.299420002857140   1.0
C16   C   0.986842069906629   0.855258200557365   0.398482840000000   1.0
C17   C   0.905113956301271   0.802994254805910   0.477614268571429   1.0
C18   C   0.855132103614153   0.609493255951222   0.464388602857142   1.0
C19   C   0.756857664242595   0.491572977576077   0.363377162857141   1.0
C20   C   0.894836207706909   0.289747465524080   0.401517159999997   1.0
C21   C   0.794100585643491   0.170425874727535   0.343571471428568   1.0
C22   C   0.629067691653567   0.099394649440043   0.420160022857139   1.0
C23   C   0.494317593387485   0.313876693298631   0.401602825714285   1.0
C24   C   0.432862587135041   0.362346277991115   0.299291448571431   1.0
C25   C   0.274088623123078   0.363568428816727   0.310554285714282   1.0
C26   C   0.147472248140886   0.394038703754852   0.365802874285713   1.0
C27   C   0.159427719046889   0.576367665393811   0.468834251428568   1.0
C28   C   0.118562676348056   0.476574605355154   0.553088597142860   1.0
C29   C   0.991463395781658   0.380364879610156   0.596317182857142   1.0
C30   C   0.916525894891940   0.129570613065326   0.597854291428568   1.0
C31   C   0.170744606895084   0.958864772749862   0.470014300000002   1.0
C32   C   0.184855867982151   0.977459180541864   0.427562822857141   1.0
C33   C   0.016766907677884   0.983134840734586   0.525157165714283   1.0
C34   C   0.175130536533395   0.858937463088310   0.477700042857144   1.0
C35   C   0.238869320641079   0.091447559340125   0.502577099999996   1.0
C36   C   0.219673720137962   0.994473229491994   0.499739948571431   1.0
C37   C   0.392532638986360   0.088126677588399   0.448068565714287   1.0
C38   C   0.181691550740531   0.154307684945330   0.502540042857142   1.0
C39   C   0.283815832245182   0.186755142464087   0.565880040000003   1.0
C40   C   0.270182681381065   0.098505252886817   0.543114254285712   1.0
C41   C   0.321872826219568   0.391786380152126   0.513102834285718   1.0
C42   C   0.222916123178663   0.214973087400857   0.587334334285714   1.0
C43   C   0.375327663999059   0.218658697371197   0.622471400000002   1.0
C44   C   0.336545968114145   0.156892698834163   0.595514245714284   1.0
C45   C   0.236008075877770   0.266002187447910   0.687605722857143   1.0
C46   C   0.408302280937818   0.165722838047905   0.651905714285711   1.0
C47   C   0.487470429291889   0.317562303268971   0.610842897142859   1.0
C48   C   0.422876602625379   0.279087395365551   0.598400005714282   1.0
C49   C   0.458575893003676   0.474264674900759   0.692154257142860   1.0
C50   C   0.537193506591443   0.248316282513599   0.610999951428575   1.0
C51   C   0.561692644873496   0.426530887686262   0.568148588571425   1.0
C52   C   0.496317597858138   0.389642794840782   0.581505694285717   1.0
C53   C   0.700118093418013   0.401979388827712   0.638334328571432   1.0
C54   C   0.588243576586542   0.353484164831151   0.540059988571429   1.0
C55   C   0.601307345361661   0.572163728129624   0.529742868571425   1.0
C56   C   0.546478337755552   0.512707602459336   0.546745737142857   1.0
C57   C   0.615787510436910   0.701006471617575   0.621245685714285   1.0
C58   C   0.653618618895962   0.525376886732367   0.508217185714287   1.0
C59   C   0.512600211697084   0.702606115925498   0.503442819999997   1.0
C60   C   0.567786814897758   0.633571352286069   0.496622902857141   1.0
C61   C   0.376988877844291   0.642689384988344   0.565728542857144   1.0
C62   C   0.533988755842579   0.772498353360966   0.532388525714282   1.0
C63   C   0.438665044840036   0.793844241758791   0.449151394285714   1.0
C64   C   0.500421194132009   0.744549144419238   0.461940002857140   1.0
C65   C   0.354823875769554   0.594322191147853   0.404100037142854   1.0
C66   C   0.411610567253824   0.850542411411297   0.482799965714285   1.0
C67   C   0.464863053965111   0.829618928468662   0.371188571428568   1.0
C68   C   0.452796993275555   0.859276628786382   0.415342822857141   1.0
C69   C   0.612074545514226   0.704730530946094   0.385445731428568   1.0
C70   C   0.401662192682466   0.814998030534163   0.349811445714288   1.0
C71   C   0.506096553587042   0.909601777329101   0.304765702857139   1.0
C72   C   0.493456400154308   0.910510395362103   0.349191394285711   1.0
C73   C   0.606620351508454   0.721961941303682   0.283954297142856   1.0
C74   C   0.445968681208598   0.938395656411387   0.283922851428571   1.0
C75   C   0.596375455138727   0.001853970591760   0.258125739999997   1.0
C76   C   0.561669124544217   0.981042514835522   0.296980014285715   1.0
C77   C   0.519583805937991   0.875061936323625   0.178142874285712   1.0
C78   C   0.600206097003003   0.103752115394556   0.259257125714285   1.0
C79   C   0.713567740536604   0.961200336109712   0.221051408571427   1.0
C80   C   0.665110530370953   0.968014913769558   0.257000022857142   1.0
C81   C   0.733798574356513   0.811158891873504   0.135242845714288   1.0
C82   C   0.705158145155210   0.041711033423091   0.197748565714285   1.0
C83   C   0.821696219041186   0.886073988632951   0.258268574285715   1.0
C84   C   0.783446384719973   0.960573270524485   0.236762837142855   1.0
C85   C   0.725629081160079   0.856806694229697   0.348794337142856   1.0
C86   C   0.852920265589603   0.827187436871533   0.225371445714288   1.0
C87   C   0.926860190160312   0.900586129080182   0.309645734285716   1.0
C88   C   0.879297157219021   0.935125970085657   0.278611428571431   1.0
C89   C   0.025893138974531   0.732084654647437   0.264799991428575   1.0
C90   C   0.983387969784516   0.964751574883216   0.309954291428575   1.0
C91   C   0.927669453254701   0.910568002213772   0.391339982857140   1.0
C92   C   0.893250171384750   0.891807249278720   0.350582885714289   1.0
C93   C   0.035111639798252   0.721136556629176   0.386694337142856   1.0
C94   C   0.948469805636101   0.004928511547924   0.397108571428575   1.0
C95   C   0.857988590663801   0.813321634678331   0.443065754285712   1.0
C96   C   0.875739479176239   0.895460763728899   0.421022905714288   1.0
C97   C   0.000978907822358   0.740377309073835   0.500128611428572   1.0
C98   C   0.793714801418986   0.833042137086096   0.459745679999997   1.0
C99   C   0.825672895891131   0.643726026778786   0.426985714285713   1.0
C100   C   0.853701528291985   0.731803095801041   0.416494317142856   1.0
C101   C   0.838637660927255   0.586400669967112   0.533628520000001   1.0
C102   C   0.753949477645627   0.644672966197398   0.428682817142857   1.0
C103   C   0.827324636662560   0.489525442075958   0.380225699999997   1.0
C104   C   0.849499017692132   0.583950020876486   0.391351428571426   1.0
C105   C   0.699614547544840   0.508228581760712   0.307080025714285   1.0
C106   C   0.870285191051501   0.461448202978161   0.346528625714285   1.0
C107   C   0.828985714035291   0.332368697441389   0.415588597142858   1.0
C108   C   0.832868144859908   0.434222109432888   0.415225765714283   1.0
C109   C   0.989759771930927   0.226906561398650   0.422834234285716   1.0
C110   C   0.819277399295352   0.312289871842061   0.457562908571426   1.0
C111   C   0.755591886521707   0.197651968272808   0.379439980000001   1.0
C112   C   0.771003838759626   0.297150659410974   0.389777157142859   1.0
C113   C   0.820378558240989   0.212349624153845   0.278599985714287   1.0
C114   C   0.780189755597753   0.138477459036572   0.411820002857141   1.0
C115   C   0.627317125969178   0.183191080839229   0.396622902857146   1.0
C116   C   0.684051981433619   0.184150836710565   0.367445702857140   1.0
C117   C   0.627679479277418   0.945683642993572   0.413459997142859   1.0
C118   C   0.635392547260366   0.254030270490560   0.425054279999998   1.0
C119   C   0.520887372423211   0.269124686124080   0.365360042857141   1.0
C120   C   0.557410250802334   0.184854788214899   0.376871382857146   1.0
C121   C   0.466345418247620   0.444850205645196   0.433759962857145   1.0
C122   C   0.566243325053613   0.328087995832036   0.341745702857146   1.0
C123   C   0.410815257295958   0.277289316793038   0.320502854285714   1.0
C124   C   0.470924329411197   0.228755777809496   0.336654282857140   1.0
C125   C   0.459394760938416   0.513872146433279   0.309182848571432   1.0
C126   C   0.387177265187596   0.210686038352115   0.290908594285718   1.0
C127   C   0.288135883314133   0.312129867739778   0.349488614285711   1.0
C128   C   0.362009830490571   0.298903947584534   0.352359991428571   1.0
C129   C   0.272502723273419   0.505003685833920   0.281842857142856   1.0
C130   C   0.259867233435386   0.223681665471858   0.343505751428573   1.0
C131   C   0.194321379322837   0.374913171412160   0.399237171428574   1.0
C132   C   0.266286160947431   0.365827099858848   0.384897177142854   1.0
C133   C   0.061673409310082   0.348115689991651   0.327471434285712   1.0
C134   C   0.173898999291872   0.288922080849574   0.419677191428569   1.0
C135   C   0.135183144328728   0.492564828967573   0.451517160000002   1.0
C136   C   0.192799475663250   0.453737945311985   0.429460034285711   1.0
C137   C   0.228040905513851   0.643028544287780   0.513331388571430   1.0
C138   C   0.080874624009439   0.515606277113349   0.424637171428571   1.0
C139   C   0.076250559272538   0.438483531974803   0.520659965714287   1.0
C140   C   0.115802167112690   0.423370067624482   0.481854251428572   1.0
C141   C   0.204697995183700   0.470003258757465   0.592702811428573   1.0
C142   C   0.020792836982068   0.493985298882464   0.509874291428574   1.0
C143   C   0.001006221145921   0.317459912416979   0.562702834285716   1.0
C144   C   0.057227700011332   0.345018817822300   0.536194285714288   1.0
C145   C   0.035009045420750   0.444338353763314   0.654908537142859   1.0
C146   C   0.942060308844326   0.305916729158341   0.535940008571430   1.0
C147   C   0.968343133274452   0.191342895055463   0.611511448571427   1.0
C148   C   0.014710869481583   0.226983332142439   0.579754311428573   1.0
C149   C   0.873438242253037   0.062762495332763   0.540982822857146   1.0
C150   C   0.999120001797671   0.155683364461275   0.647971454285717   1.0
H151   H   0.228393879867262   0.945127000712738   0.421448625714284   1.0
H152   H   0.148404529428120   0.945606878648405   0.410405731428568   1.0
H153   H   0.143408191244092   0.824404097494799   0.460125731428569   1.0
H154   H   0.163192971760431   0.847119196395234   0.508422851428570   1.0
H155   H   0.221410238566868   0.830655570259104   0.473588562857145   1.0
H156   H   0.260963728786322   0.963465476165162   0.489800045714283   1.0
H157   H   0.206619462084234   0.972014056532508   0.526705714285711   1.0
H158   H   0.151163132754448   0.138957394559895   0.526408605714288   1.0
H159   H   0.154993318141749   0.144524194887303   0.475848608571425   1.0
H160   H   0.191138755942582   0.217890797974420   0.504985699999999   1.0
H161   H   0.309642057341740   0.058673771771915   0.543579974285713   1.0
H162   H   0.241170510504794   0.064138226037727   0.562111445714287   1.0
H163   H   0.181237906742460   0.209131075666448   0.569388582857144   1.0
H164   H   0.226572673193893   0.278409070368042   0.597062902857139   1.0
H165   H   0.219739603413274   0.176709315039432   0.614219994285712   1.0
H166   H   0.371562914821986   0.109658075021400   0.582382857142861   1.0
H167   H   0.314813917983088   0.108346343397891   0.613474274285714   1.0
H168   H   0.426486027274969   0.105102225991324   0.639957099999997   1.0
H169   H   0.376071232056070   0.135809269376899   0.671991402857145   1.0
H170   H   0.444509827843476   0.203551580460257   0.666928537142859   1.0
H171   H   0.392523212972037   0.330628347294493   0.587445722857140   1.0
H172   H   0.432217895756423   0.243248639189297   0.571931457142860   1.0
H173   H   0.535038125827882   0.209809394265328   0.585100011428572   1.0
H174   H   0.532586364444398   0.200141060322984   0.634071460000001   1.0
H175   H   0.582704736689841   0.276994947892547   0.616977148571429   1.0
H176   H   0.465950118595778   0.444197507154513   0.588320051428575   1.0
H177   H   0.481842101083529   0.364950583744630   0.554517145714286   1.0
H178   H   0.591133089980907   0.289958601066076   0.552797154285713   1.0
H179   H   0.637839550930181   0.362135142449112   0.532191468571426   1.0
H180   H   0.560092603649395   0.351071965098704   0.513785662857146   1.0
H181   H   0.521226214814064   0.554957822704921   0.566422817142858   1.0
H182   H   0.511621393287740   0.498553900378973   0.526211439999997   1.0
H183   H   0.686536773867772   0.562373839443168   0.493325697142858   1.0
H184   H   0.640663185755187   0.471218940569749   0.492385754285714   1.0
H185   H   0.678757827315465   0.494260388715524   0.529725757142856   1.0
H186   H   0.555160802839474   0.585901506565378   0.476251439999999   1.0
H187   H   0.605914487508706   0.667637649998007   0.484205737142858   1.0
H188   H   0.583942330486742   0.790056234537836   0.532537188571432   1.0
H189   H   0.531423985818151   0.741183529856222   0.560717120000000   1.0
H190   H   0.498774116955282   0.824576796475874   0.531180028571427   1.0
H191   H   0.518313181090420   0.698715826629240   0.441419982857141   1.0
H192   H   0.537386393997750   0.792993224178829   0.461980002857146   1.0
H193   H   0.440745073960450   0.900003853893899   0.495114245714284   1.0
H194   H   0.401953952061213   0.812278645448501   0.507934242857139   1.0
H195   H   0.371115868563336   0.882836276253435   0.475974274285711   1.0
H196   H   0.489776334515739   0.905359518679305   0.425668554285714   1.0
H197   H   0.411394070105217   0.897303632700350   0.417585754285717   1.0
H198   H   0.376297108159513   0.878632460563189   0.343948582857145   1.0
H199   H   0.375995918060497   0.765779825512347   0.364674268571427   1.0
H200   H   0.413939988101006   0.784015903714156   0.323114285714283   1.0
H201   H   0.538661781264935   0.913856846032999   0.362497165714288   1.0
H202   H   0.468919562520931   0.972468301562728   0.357277134285717   1.0
H203   H   0.454444065746330   0.952459784092490   0.255788588571427   1.0
H204   H   0.424335451284556   0.997310938014422   0.293820028571432   1.0
H205   H   0.407572854255257   0.890303546005335   0.280305699999999   1.0
H206   H   0.598916709539814   0.968424374799454   0.318217142857144   1.0
H207   H   0.537762935739927   0.044180897594863   0.301111440000000   1.0
H208   H   0.553941966952245   0.133096225331997   0.266017151428571   1.0
H209   H   0.610385110097425   0.135508489050728   0.232108580000002   1.0
H210   H   0.632380688623755   0.124438900274647   0.282085691428570   1.0
H211   H   0.665087014747620   0.902134622752513   0.266608591428572   1.0
H212   H   0.687840250939985   0.009074841960434   0.278577151428571   1.0
H213   H   0.660272890879298   0.049664528550046   0.182422857142861   1.0
H214   H   0.736669240428192   0.042402046900754   0.174068560000002   1.0
H215   H   0.709191185147183   0.100444050095554   0.213248554285712   1.0
H216   H   0.783483905245262   0.018816708940591   0.253882874285715   1.0
H217   H   0.811470174700091   0.975859542632570   0.212005725714285   1.0
H218   H   0.881165399845010   0.869904718600061   0.206994302857140   1.0
H219   H   0.816298482296396   0.792135743984169   0.209980011428570   1.0
H220   H   0.884878364767694   0.772991041350735   0.235594285714285   1.0
H221   H   0.866195778505606   0.996559086377729   0.289657157142855   1.0
H222   H   0.906436280696163   0.953285168766989   0.253165708571430   1.0
H223   H   0.973383090892682   0.033731905390674   0.316239982857141   1.0
H224   H   0.006696545516341   0.966536837002998   0.282965691428572   1.0
H225   H   0.021542503947998   0.949740392608192   0.328288597142858   1.0
H226   H   0.862266316434315   0.836241521681373   0.353514317142860   1.0
H227   H   0.856854395961541   0.940327978208167   0.350140054285717   1.0
H228   H   0.996889316450428   0.019622929722978   0.390262822857146   1.0
H229   H   0.943702717720399   0.033104846204068   0.426217108571429   1.0
H230   H   0.921608220162142   0.050502723278655   0.377945708571431   1.0
H231   H   0.832562244106711   0.919807596058789   0.408034297142855   1.0
H232   H   0.886633692871698   0.935362610560539   0.447282845714284   1.0
H233   H   0.754382471942840   0.841123655970499   0.439779991428573   1.0
H234   H   0.796208841041420   0.892888566292797   0.476168605714285   1.0
H235   H   0.781582815100585   0.781981184666762   0.480771420000004   1.0
H236   H   0.899391471480598   0.725218939149258   0.402325765714288   1.0
H237   H   0.821682214139230   0.751779652122316   0.394899968571430   1.0
H238   H   0.732518612907640   0.582804640794663   0.433125740000001   1.0
H239   H   0.734824518131489   0.665238138745721   0.401100048571429   1.0
H240   H   0.731544458093005   0.680306934271044   0.451025717142855   1.0
H241   H   0.902337352722938   0.578255196791638   0.393648528571426   1.0
H242   H   0.845386094228850   0.620518111916020   0.364280048571430   1.0
H243   H   0.871701766177665   0.506110635753451   0.322422845714286   1.0
H244   H   0.852929602190898   0.401876991577097   0.332611411428573   1.0
H245   H   0.917128176265052   0.457826668872826   0.353748539999998   1.0
H246   H   0.801046659359116   0.459387857423941   0.437202888571427   1.0
H247   H   0.879259457867704   0.456553258634934   0.426965771428570   1.0
H248   H   0.836708203326609   0.248284302168749   0.463699994285712   1.0
H249   H   0.771276703756207   0.317376679058483   0.467474257142854   1.0
H250   H   0.844741266377731   0.354143204362600   0.476328605714286   1.0
H251   H   0.779267394449406   0.329028594209881   0.361460005714285   1.0
H252   H   0.730880872332214   0.328843085174711   0.401885768571425   1.0
H253   H   0.830915171635930   0.141516845928187   0.410434288571430   1.0
H254   H   0.765497851087559   0.072558789046262   0.411748614285713   1.0
H255   H   0.763959024838115   0.153290322222325   0.441257151428573   1.0
H256   H   0.688710912541012   0.126460866855595   0.353382874285714   1.0
H257   H   0.674305967342363   0.226029917311870   0.343277194285712   1.0
H258   H   0.631359502562447   0.314190226091249   0.411691394285711   1.0
H259   H   0.676884826975815   0.256800908589881   0.442274257142856   1.0
H260   H   0.596700203214610   0.258451799512827   0.444942911428569   1.0
H261   H   0.524496848838240   0.142297440203748   0.393288531428574   1.0
H262   H   0.560224370200004   0.146770113462978   0.351620048571426   1.0
H263   H   0.602399082998929   0.358180790085108   0.360208565714288   1.0
H264   H   0.541301766460023   0.375616994943925   0.327002880000002   1.0
H265   H   0.596050801181804   0.298033650937150   0.319017137142858   1.0
H266   H   0.449272252164469   0.175359140456372   0.351971437142858   1.0
H267   H   0.495545850583085   0.205036004666212   0.310714285714283   1.0
H268   H   0.349360251043514   0.232083064588274   0.274434280000001   1.0
H269   H   0.367882886831005   0.157123062254563   0.305025700000002   1.0
H270   H   0.424396623905679   0.188693926875565   0.270260020000002   1.0
H271   H   0.375906523867805   0.357355405410601   0.368262811428572   1.0
H272   H   0.369497022370076   0.250901417976372   0.375854274285714   1.0
H273   H   0.211936237695561   0.227834343323771   0.341577148571432   1.0
H274   H   0.275698043302015   0.179850977607728   0.365051379999997   1.0
H275   H   0.274342730209988   0.194011148701421   0.316299982857146   1.0
H276   H   0.283274634080172   0.430082126459766   0.376948548571427   1.0
H277   H   0.298201887767604   0.341928293092352   0.408062854285717   1.0
H278   H   0.199699327555294   0.291423861379911   0.446528625714286   1.0
H279   H   0.191973111152969   0.230163431271656   0.404171425714288   1.0
H280   H   0.124850307904310   0.290240153513842   0.424777114285718   1.0
H281   H   0.210949386232585   0.505957094265867   0.412625668571430   1.0
H282   H   0.235353958484829   0.447083365355802   0.446882848571427   1.0
H283   H   0.056510057023154   0.464142089529574   0.409311457142856   1.0
H284   H   0.103963422546741   0.552411130201705   0.400791385714285   1.0
H285   H   0.046863790210708   0.561106898218611   0.437239945714289   1.0
H286   H   0.161182101255299   0.399733527839693   0.494002860000002   1.0
H287   H   0.098324280069335   0.367509971126637   0.466779982857140   1.0
H288   H   0.985933887780313   0.466567105714738   0.492560031428575   1.0
H289   H   0.038429799193658   0.552673525155981   0.500977108571426   1.0
H290   H   0.993091620929754   0.507633496520327   0.535328565714288   1.0
H291   H   0.101225487745062   0.314810944237088   0.546505737142859   1.0
H292   H   0.050013490777104   0.303127042342211   0.510314291428571   1.0
H293   H   0.921165889263627   0.364310701706671   0.523368617142857   1.0
H294   H   0.905353969073211   0.276271954070033   0.553282820000000   1.0
H295   H   0.948215787962205   0.257939826056997   0.513402885714285   1.0
H296   H   0.061252241060785   0.237771419659786   0.594922857142855   1.0
H297   H   0.023068158248336   0.181956119959516   0.554657091428574   1.0
H298   H   0.036502228678259   0.197082509539250   0.658937182857144   1.0
H299   H   0.016630430473086   0.091761092132742   0.647188568571430   1.0
H300   H   0.965594718326059   0.153040743720773   0.672219957142858   1.0
H301   H   0.184088789007752   0.046669932057377   0.421637182857140   1.0
H302   H   0.938032115979034   0.247100594302687   0.621440017142859   1.0
H303   H   0.982376209737524   0.992719947717063   0.501851437142854   1.0
H304   H   0.998170402620929   0.936911110631499   0.544462802857140   1.0
H305   H   0.022339202160595   0.039637865017518   0.540074268571431   1.0
H306   H   0.413262355084733   0.029182525373940   0.436808560000003   1.0
H307   H   0.381356002513449   0.134798254093283   0.426582879999998   1.0
H308   H   0.432213180396289   0.122288973922537   0.460345677142854   1.0
H309   H   0.308122036061448   0.375354727962218   0.482217188571425   1.0
H310   H   0.300399589123657   0.451152803450583   0.519785745714287   1.0
H311   H   0.373680591528284   0.400654840751479   0.515988594285716   1.0
H312   H   0.233758632620855   0.334646653949562   0.683928571428574   1.0
H313   H   0.192448877813703   0.233087610858554   0.677700042857140   1.0
H314   H   0.239866944019568   0.248412325926196   0.718840025714286   1.0
H315   H   0.508844879122428   0.494881106861364   0.696734291428569   1.0
H316   H   0.432980259370687   0.535813126470110   0.690137154285715   1.0
H317   H   0.441248619833615   0.432283318622780   0.713819994285714   1.0
H318   H   0.732320963081719   0.455196736612486   0.646414294285712   1.0
H319   H   0.674094223201479   0.389892379740964   0.663854325714283   1.0
H320   H   0.735520956116915   0.352921053536988   0.634728568571425   1.0
H321   H   0.611199220318497   0.767987352317498   0.609351457142857   1.0
H322   H   0.588733032850698   0.689648925366676   0.648080008571426   1.0
H323   H   0.664046976657673   0.695938834691901   0.629002817142855   1.0
H324   H   0.347280226629053   0.604003341542921   0.546751402857140   1.0
H325   H   0.392513791663674   0.602179636463589   0.587871442857143   1.0
H326   H   0.342936659936768   0.689751322617290   0.576519994285711   1.0
H327   H   0.336993009666841   0.558099485273218   0.428311377142855   1.0
H328   H   0.320795173485372   0.629898552369824   0.390437100000000   1.0
H329   H   0.375807698954844   0.546217270687698   0.386522894285712   1.0
H330   H   0.655458672892010   0.734612068083223   0.385180011428574   1.0
H331   H   0.607283852562169   0.676557370009640   0.413785662857144   1.0
H332   H   0.612361594238791   0.659543436234820   0.360691397142858   1.0
H333   H   0.655886914181501   0.720682311598964   0.291451425714286   1.0
H334   H   0.577881097394190   0.667349750110844   0.293162862857144   1.0
H335   H   0.605076772251280   0.725583603381580   0.253542874285713   1.0
H336   H   0.468990161156377   0.889874799509379   0.183351408571426   1.0
H337   H   0.540798220586851   0.907611848680652   0.153905705714287   1.0
H338   H   0.518906125862230   0.808848961419102   0.173208562857141   1.0
H339   H   0.775008516001577   0.767257895880277   0.142725702857142   1.0
H340   H   0.691007391750546   0.770066868162459   0.135968562857144   1.0
H341   H   0.734382097819960   0.835166558505321   0.106057139999997   1.0
H342   H   0.738961051337071   0.894897774008676   0.373739951428568   1.0
H343   H   0.676729544801866   0.867620421051122   0.340294268571426   1.0
H344   H   0.735050351881398   0.791508678398941   0.357868522857146   1.0
H345   H   0.989129306633821   0.698267922639786   0.248871448571428   1.0
H346   H   0.069734698638719   0.745041838807637   0.248245731428568   1.0
H347   H   0.035737055612898   0.689418625932554   0.289805711428571   1.0
H348   H   0.077827513114599   0.720560756854852   0.370177131428569   1.0
H349   H   0.041652432545817   0.715819341201950   0.417228591428568   1.0
H350   H   0.008180420408237   0.670849729472067   0.374585722857141   1.0
H351   H   0.984559685012059   0.705344780078597   0.522745731428572   1.0
H352   H   0.040510769503712   0.698626245831349   0.489957099999998   1.0
H353   H   0.019271403917301   0.796467583431863   0.511742839999997   1.0
H354   H   0.825738779166436   0.517589858322403   0.531194305714287   1.0
H355   H   0.889085538962249   0.591679570407351   0.538360051428569   1.0
H356   H   0.816373876293092   0.615802329168574   0.559131405714282   1.0
H357   H   0.661082243386701   0.550741075386640   0.319068582857142   1.0
H358   H   0.711219467660783   0.524833054505635   0.277794265714284   1.0
H359   H   0.678771916924482   0.443404102824857   0.305719977142857   1.0
H360   H   0.022310505288253   0.263583512303505   0.408302851428573   1.0
H361   H   0.005532397453564   0.220546235167653   0.451274328571429   1.0
H362   H   0.981373786291833   0.170131499428415   0.410462842857143   1.0
H363   H   0.870191123852202   0.214467576559734   0.287722834285716   1.0
H364   H   0.817790272593228   0.151140331883930   0.264031437142854   1.0
H365   H   0.808190204074620   0.262553339526399   0.255662862857143   1.0
H366   H   0.671595336452356   0.930755687678413   0.427737102857144   1.0
H367   H   0.588638871532439   0.931030777511481   0.434234291428574   1.0
H368   H   0.625834756980716   0.892363891559555   0.393877194285714   1.0
H369   H   0.420998891631541   0.420976903811585   0.443402862857141   1.0
H370   H   0.499225873868113   0.434567616171719   0.457657188571432   1.0
H371   H   0.457413561436915   0.509655527087560   0.425648611428571   1.0
H372   H   0.429168427181509   0.536555399360061   0.287031445714284   1.0
H373   H   0.459037071224877   0.552455920600650   0.333248574285712   1.0
H374   H   0.503908325304792   0.506136255861648   0.296557125714287   1.0
H375   H   0.236045732875553   0.537342341075011   0.298220008571427   1.0
H376   H   0.307670279148617   0.555546445330599   0.280465700000001   1.0
H377   H   0.260742563337061   0.483241995365432   0.253628594285715   1.0
H378   H   0.080064259723166   0.357124990801175   0.298897117142857   1.0
H379   H   0.029071541119222   0.292102179978791   0.322311402857146   1.0
H380   H   0.034997737027140   0.402606448014318   0.336105728571425   1.0
H381   H   0.234455112959814   0.630621546192344   0.541437097142854   1.0
H382   H   0.276375728083721   0.655813035865535   0.502277157142856   1.0
H383   H   0.200445714475293   0.698965283556852   0.513431439999998   1.0
H384   H   0.221076111536149   0.530886201782039   0.586225674285714   1.0
H385   H   0.184549473104390   0.457372295870044   0.619734302857140   1.0
H386   H   0.250177676605119   0.440812619922696   0.592994254285713   1.0
H387   H   0.990512846003377   0.443813679030072   0.671611460000001   1.0
H388   H   0.075725855456092   0.436154437628289   0.672831400000000   1.0
H389   H   0.034519612686346   0.513878615446608   0.643485697142857   1.0
H390   H   0.878007685048765   0.995042688225560   0.546942902857140   1.0
H391   H   0.828656297658753   0.075930866223985   0.553311374285713   1.0
H392   H   0.875697111524268   0.082483055328176   0.511414337142860   1.0
O393   O   0.073861810535938   0.040284152082521   0.457742854285712   1.0
O394   O   0.270032109861304   0.160162449146178   0.443337142857146   1.0
O395   O   0.363548703799502   0.229651579389767   0.522068568571427   1.0
O396   O   0.327727025825418   0.350028975868874   0.642802865714287   1.0
O397   O   0.515616733928390   0.319488277626348   0.677994319999996   1.0
O398   O   0.587692994760751   0.481981401580271   0.628465708571426   1.0
O399   O   0.674931853751836   0.683007161863216   0.551445662857141   1.0
O400   O   0.432740246598747   0.602883587967924   0.497262900000003   1.0
O401   O   0.332037650880053   0.748305177693972   0.437962885714285   1.0
O402   O   0.488783374731952   0.681957825193990   0.361354282857143   1.0
O403   O   0.493338770272196   0.776574260469083   0.268754305714289   1.0
O404   O   0.529748635304422   0.040437680772854   0.200871440000000   1.0
O405   O   0.691129736992785   0.810263083894597   0.206702860000000   1.0
O406   O   0.773841473780635   0.757116031441655   0.288522882857144   1.0
O407   O   0.921928299937377   0.747607695202973   0.310625731428573   1.0
O408   O   0.025011258392908   0.875829842119025   0.423802840000001   1.0
O409   O   0.895160776956757   0.844060645611499   0.507288580000001   1.0
O410   O   0.904855091500693   0.568881231749792   0.465425762857144   1.0
O411   O   0.709482991585411   0.471794868316643   0.379451425714287   1.0
O412   O   0.904680957298105   0.277212552447878   0.366691480000000   1.0
O413   O   0.827898734111692   0.105972465051060   0.345028577142855   1.0
O414   O   0.635999586347147   0.098326091291035   0.454719982857142   1.0
O415   O   0.471686693025468   0.268107323401068   0.427237159999997   1.0
O416   O   0.449187521566479   0.358231927923441   0.265431431428574   1.0
O417   O   0.231848027048848   0.337647597881627   0.290039988571429   1.0
O418   O   0.150028039216082   0.466618365127019   0.351439994285712   1.0
O419   O   0.147253910966519   0.645300031782625   0.454968588571425   1.0
O420   O   0.099915365873947   0.540228192877670   0.568899971428571   1.0
O421   O   0.941735560768436   0.421456781747260   0.597568622857146   1.0
O422   O   0.887894802291939   0.082380715665217   0.619008528571428   1.0
O423   O   0.081787112078395   0.963970980607655   0.513565720000003   1.0
O424   O   0.340376605272475   0.077856846979991   0.473468562857143   1.0
O425   O   0.291048869978297   0.333047016040268   0.535908617142859   1.0
O426   O   0.286559404772845   0.226401056956156   0.667842865714285   1.0
O427   O   0.451709923938935   0.429602248524098   0.658065685714284   1.0
O428   O   0.664254052497910   0.401294716390808   0.604194314285714   1.0
O429   O   0.598262545087394   0.643758000725001   0.592102814285717   1.0
O430   O   0.430424915360582   0.685329902371713   0.552068548571427   1.0
O431   O   0.403582177209302   0.652754485081800   0.420388577142859   1.0
O432   O   0.566760965241748   0.767462690381514   0.379928588571431   1.0
O433   O   0.581645851277209   0.796858002143580   0.299294282857140   1.0
O434   O   0.554045455459907   0.901769836946251   0.211591448571426   1.0
O435   O   0.733186777556064   0.886278770336929   0.160080011428569   1.0
O436   O   0.760518924912006   0.887398530310556   0.317014311428572   1.0
O437   O   0.999601490891457   0.807601299261975   0.276911437142857   1.0
O438   O   0.992272837702082   0.787579958940384   0.378371428571427   1.0
O439   O   0.953514615086966   0.748221937936847   0.472691454285716   1.0
O440   O   0.822905628914100   0.627127901473251   0.499011448571430   1.0
O441   O   0.756561278916728   0.506187393699989   0.325537162857145   1.0
O442   O   0.936290792776980   0.279016972061150   0.428811428571429   1.0
O443   O   0.782316863024320   0.219720850493147   0.311945725714288   1.0
O444   O   0.627444130100173   0.024421952227549   0.397308571428575   1.0
O445   O   0.496002322856050   0.403623810737322   0.401877157142856   1.0
O446   O   0.431333186899913   0.436922337025059   0.321491405714283   1.0
O447   O   0.297735994186269   0.442341956101529   0.309128571428573   1.0
O448   O   0.109721611396680   0.329105358555047   0.352839988571425   1.0
O449   O   0.201441949599058   0.567550342632792   0.496739959999999   1.0
O450   O   0.169022225134683   0.436909520572336   0.562791442857140   1.0
O451   O   0.036945077231081   0.379366680779270   0.625808605714283   1.0
O452   O   0.916826943812509   0.121354722984087   0.559002902857145   1.0


# Number_of_total_atoms: 452
# Number_of_atom_type: 3
# Name_of_each_atom: C H O
# Number_of_each_atom: 150 242 60
# Created_by: Lihua Chen (lihua.chen@mse.gatech.edu)
# Tool: VASP
# K-points: 1 1 1
# Pseudopotential: PBE-HSE06
# Material_class: MC_Pol
# Geometry_class: GC_PD
# Bandgap_(eV): 5.69
