#======================================================================

# Note: Disordered slab of isotactic polymethyl methacrylate
# Common_name: Disordered slab-5

#----------------------------------------------------------------------

data_1
_audit_creation_method   'vasp2cif'
_cell_length_a    21.3455582
_cell_length_b    15.6601105
_cell_length_c    36.0
_cell_angle_alpha    90.0
_cell_angle_beta    90.0
_cell_angle_gamma    90.0

_symmetry_space_group_name_H-M    'P 1'
loop_
_atom_site_label
_atom_site_type_symbol
_atom_site_fract_x
_atom_site_fract_y
_atom_site_fract_z
_atom_site_occupancy
C1   C   0.109631679718731   0.993706647216825   0.457900047222225   1.0
C2   C   0.284196362688704   0.119562029910327   0.455383300000001   1.0
C3   C   0.340582796284053   0.250659406266642   0.510427794444446   1.0
C4   C   0.368415289322350   0.257326064206254   0.624613869444445   1.0
C5   C   0.514230131494053   0.360109508805827   0.624936105555555   1.0
C6   C   0.615290960158632   0.493199240196930   0.584936141666667   1.0
C7   C   0.572898084248742   0.687355003018659   0.559924972222220   1.0
C8   C   0.428338735128513   0.649309268922465   0.500294472222222   1.0
C9   C   0.363421233931469   0.707150482750428   0.407899963888887   1.0
C10   C   0.509240859299709   0.752737625957366   0.356377813888891   1.0
C11   C   0.504424855003322   0.834908201956814   0.273580549999998   1.0
C12   C   0.549722325837323   0.003228278625493   0.218169427777781   1.0
C13   C   0.699032054359677   0.896670173559755   0.189944427777775   1.0
C14   C   0.768479753319355   0.842934965241781   0.288277786111109   1.0
C15   C   0.928157072041337   0.765100220716832   0.292291641666665   1.0
C16   C   0.993022923148480   0.841325787579848   0.383583280555556   1.0
C17   C   0.910574898903320   0.792897016914409   0.466122202777775   1.0
C18   C   0.848327705011712   0.609296760709320   0.456183327777779   1.0
C19   C   0.732669047745965   0.493295095203827   0.373233372222224   1.0
C20   C   0.879069482474343   0.287127878184514   0.407125049999998   1.0
C21   C   0.780388554092717   0.155385583007224   0.356675044444444   1.0
C22   C   0.604904780611456   0.114051213112447   0.424594455555557   1.0
C23   C   0.490843537649909   0.330173602542587   0.383272172222220   1.0
C24   C   0.436949411798473   0.352785147971979   0.286825022222224   1.0
C25   C   0.274278589725519   0.353455641325134   0.290058347222221   1.0
C26   C   0.142011727760767   0.382733851079784   0.334861119444447   1.0
C27   C   0.129594137294568   0.531161909745144   0.440863927777777   1.0
C28   C   0.108161130215841   0.452043796242691   0.520333291666667   1.0
C29   C   0.977806708282756   0.355160667608317   0.568283294444441   1.0
C30   C   0.112511435751536   0.188884644204776   0.632519405555556   1.0
C31   C   0.179839733589162   0.969466677773440   0.450583352777777   1.0
C32   C   0.200619682084493   0.994536692445436   0.411288897222221   1.0
C33   C   0.019194133794073   0.965769424168492   0.494544452777781   1.0
C34   C   0.181353870614636   0.871549137536419   0.453261163888889   1.0
C35   C   0.244928211809423   0.094996436966390   0.488105563888887   1.0
C36   C   0.220895132177894   0.002877080592761   0.484794405555554   1.0
C37   C   0.382029348850665   0.077748819205333   0.425936063888891   1.0
C38   C   0.190249857227911   0.158731638579432   0.491902775000000   1.0
C39   C   0.310913822811152   0.189286940216675   0.542313894444447   1.0
C40   C   0.283896529817618   0.102921074535203   0.526591622222220   1.0
C41   C   0.316559053489641   0.378768387362271   0.479086133333332   1.0
C42   C   0.261212630176146   0.235812889059751   0.566577805555553   1.0
C43   C   0.409852458203694   0.210276638852584   0.594308325000000   1.0
C44   C   0.367262824731377   0.154191421573941   0.567944422222226   1.0
C45   C   0.318203423698705   0.243667188682991   0.681661077777775   1.0
C46   C   0.454531542773147   0.149446895665264   0.616150008333335   1.0
C47   C   0.514417505371213   0.326591201256214   0.584111108333332   1.0
C48   C   0.454367574233778   0.274586478811884   0.570330513888891   1.0
C49   C   0.465620505534496   0.465511095850822   0.663194444444443   1.0
C50   C   0.572359358585430   0.268475449135558   0.579091711111111   1.0
C51   C   0.583260942784811   0.464655348377015   0.548408297222224   1.0
C52   C   0.520559373331359   0.409802657522754   0.555622205555558   1.0
C53   C   0.717747887239604   0.505108517593158   0.614752769444443   1.0
C54   C   0.628755175866047   0.417829420807728   0.523130522222225   1.0
C55   C   0.577147216510831   0.634143392538640   0.524472238888890   1.0
C56   C   0.549370978735986   0.542988243920753   0.528105525000001   1.0
C57   C   0.513682017460660   0.735330328607837   0.611650044444445   1.0
C58   C   0.647372627622360   0.633006670035947   0.510444430555559   1.0
C59   C   0.473776764479275   0.716505442282802   0.487202750000002   1.0
C60   C   0.544868880496175   0.684602761902603   0.491850005555556   1.0
C61   C   0.362043907570431   0.605542017088574   0.553086072222222   1.0
C62   C   0.464486761465906   0.802366950092718   0.510977744444446   1.0
C63   C   0.408728093135558   0.778037581535585   0.423233349999997   1.0
C64   C   0.467349183681691   0.737399285911806   0.444041677777776   1.0
C65   C   0.347994141469677   0.567164261069550   0.382841641666666   1.0
C66   C   0.369553680727826   0.834378263167430   0.452161152777777   1.0
C67   C   0.456091605044087   0.819327251873482   0.354538919444444   1.0
C68   C   0.433595083964590   0.838586336922717   0.394055577777777   1.0
C69   C   0.606286763679009   0.726754501508786   0.387913916666669   1.0
C70   C   0.400604627898652   0.777801299677932   0.332825027777780   1.0
C71   C   0.495205124221116   0.923681502758235   0.294672224999999   1.0
C72   C   0.479243953432899   0.907295960651105   0.336391661111108   1.0
C73   C   0.576978605319397   0.718012551699431   0.266141680555556   1.0
C74   C   0.432728425907364   0.966925150368510   0.277402772222224   1.0
C75   C   0.585898456382367   0.013030227340991   0.254408358333336   1.0
C76   C   0.553962079098966   0.987467859821294   0.291625022222220   1.0
C77   C   0.529427668000736   0.912206551799237   0.164847216666665   1.0
C78   C   0.602117240485192   0.109919690541133   0.259283330555554   1.0
C79   C   0.704133818341653   0.968266130689180   0.220455544444448   1.0
C80   C   0.652783565997353   0.962602102967281   0.252500005555554   1.0
C81   C   0.740164743033048   0.844231246005577   0.133519438888889   1.0
C82   C   0.705394005578171   0.053642954818230   0.199808333333337   1.0
C83   C   0.810694634352544   0.878847923838087   0.256836097222220   1.0
C84   C   0.775853751156532   0.962078498743672   0.237891675000000   1.0
C85   C   0.714295178282100   0.883017747543988   0.342969472222222   1.0
C86   C   0.823109367081344   0.807916125496050   0.226508352777778   1.0
C87   C   0.920099147372028   0.862877340488751   0.298330572222220   1.0
C88   C   0.876057122741351   0.913247425680680   0.269363880555552   1.0
C89   C   0.967294001240973   0.649909481800911   0.253872236111114   1.0
C90   C   0.981029776958465   0.905048198733972   0.292044427777775   1.0
C91   C   0.932410762628827   0.897660019704205   0.376677725000000   1.0
C92   C   0.894271760014220   0.876561796929849   0.339474997222226   1.0
C93   C   0.023202920971166   0.699909186464552   0.376299963888890   1.0
C94   C   0.953698704398370   0.995315824878759   0.373977766666670   1.0
C95   C   0.862874108394131   0.813580153217949   0.431313938888891   1.0
C96   C   0.886499599715314   0.895782644701008   0.411488852777779   1.0
C97   C   0.007517231383531   0.714998447807886   0.485850016666667   1.0
C98   C   0.802144893076630   0.845316819443902   0.448938900000002   1.0
C99   C   0.819506720606633   0.646735826033925   0.418730525000001   1.0
C100   C   0.851199599924257   0.734602472951899   0.403733361111108   1.0
C101   C   0.822181853271935   0.550529646645849   0.515791680555559   1.0
C102   C   0.746601670037379   0.668402352588764   0.420658324999998   1.0
C103   C   0.802997529481331   0.484316857151171   0.383594408333330   1.0
C104   C   0.833434779887838   0.578932983902000   0.387800005555555   1.0
C105   C   0.655800577752046   0.530133826322619   0.324119463888891   1.0
C106   C   0.838011760217171   0.449342589249291   0.348372247222223   1.0
C107   C   0.817689045021083   0.328915565442529   0.418594466666669   1.0
C108   C   0.825086452880861   0.427050275283818   0.417069436111113   1.0
C109   C   0.966305552037518   0.202645715686359   0.429574966666664   1.0
C110   C   0.798261134253217   0.319586186827991   0.461858325000002   1.0
C111   C   0.743219280159188   0.198629230617499   0.388905524999998   1.0
C112   C   0.760693651009795   0.295831584330138   0.395644400000002   1.0
C113   C   0.835111812629947   0.194223112282636   0.298958355555555   1.0
C114   C   0.752968306071281   0.140130250038787   0.423883333333336   1.0
C115   C   0.611351086616231   0.195845080403487   0.399219408333330   1.0
C116   C   0.672572202867009   0.186841261432988   0.375224961111108   1.0
C117   C   0.610540538593177   0.959262439431704   0.421633297222222   1.0
C118   C   0.610348512694316   0.277044941668834   0.424619463888888   1.0
C119   C   0.520240730926396   0.272549430605871   0.353036138888889   1.0
C120   C   0.553891755334838   0.192039174947077   0.370666716666669   1.0
C121   C   0.509156513883063   0.449463897461001   0.424561077777781   1.0
C122   C   0.570813322651830   0.319701166859581   0.329069455555555   1.0
C123   C   0.410765983154285   0.274809970210619   0.307722197222219   1.0
C124   C   0.466997831895540   0.229969935397328   0.328752783333336   1.0
C125   C   0.457159719533593   0.506730485714009   0.295955552777777   1.0
C126   C   0.389604709423807   0.211189748629167   0.277775022222222   1.0
C127   C   0.284697600459097   0.297657803883311   0.326427777777781   1.0
C128   C   0.355822468020534   0.295576177447792   0.335919486111109   1.0
C129   C   0.292577483403548   0.485791936142469   0.262505533333332   1.0
C130   C   0.254888120002406   0.206010953754124   0.318747202777779   1.0
C131   C   0.179500538898999   0.349158168456093   0.370363872222221   1.0
C132   C   0.253923076136751   0.345365053458593   0.361769463888891   1.0
C133   C   0.082151030372209   0.331929669334073   0.283786086111114   1.0
C134   C   0.151158366052940   0.263130652877578   0.386205566666668   1.0
C135   C   0.114810269988631   0.437995287453433   0.427836100000000   1.0
C136   C   0.176639545551914   0.415690183029042   0.404211150000002   1.0
C137   C   0.204491691390856   0.624807564416614   0.471533355555557   1.0
C138   C   0.055206314539014   0.443116592312677   0.402066655555558   1.0
C139   C   0.063743922143018   0.397944535576556   0.494494438888886   1.0
C140   C   0.103292670041299   0.373481081120083   0.459219402777777   1.0
C141   C   0.206657495609555   0.454093513580254   0.553911105555557   1.0
C142   C   0.001583922035827   0.444297899430531   0.488558347222224   1.0
C143   C   0.031334364448711   0.291814977933903   0.556122250000001   1.0
C144   C   0.051922244881844   0.311495605347105   0.514063941666663   1.0
C145   C   0.956350244333265   0.493940007639154   0.597291630555553   1.0
C146   C   0.004216319814958   0.200621457939263   0.556855519444447   1.0
C147   C   0.082553915127882   0.274528988796085   0.623222244444442   1.0
C148   C   0.090264203069658   0.289305480954304   0.582636094444446   1.0
C149   C   0.128241157919213   0.043477011225434   0.616494497222220   1.0
C150   C   0.101412180450730   0.349419909904214   0.649074977777779   1.0
H151   H   0.250962272797345   0.992499644239423   0.407744408333336   1.0
H152   H   0.181231587562792   0.954262449169818   0.389955519444442   1.0
H153   H   0.167934685352947   0.845150811675310   0.481286155555558   1.0
H154   H   0.228910837290727   0.845987312797057   0.448502752777777   1.0
H155   H   0.149310665485430   0.842379451920216   0.433122211111112   1.0
H156   H   0.264407678970891   0.962161441964284   0.489041647222223   1.0
H157   H   0.195851973550170   0.995730783636553   0.511541686111109   1.0
H158   H   0.165179086298153   0.149421378603940   0.516719394444443   1.0
H159   H   0.160142417826300   0.155059895650162   0.470161122222223   1.0
H160   H   0.209271154127045   0.220774655453418   0.491202777777779   1.0
H161   H   0.323333291888332   0.052174267863563   0.518283313888887   1.0
H162   H   0.254546151901522   0.071842104817840   0.547283386111111   1.0
H163   H   0.279455329493331   0.297204473748764   0.575411161111113   1.0
H164   H   0.248793207947124   0.196943316587706   0.590491719444444   1.0
H165   H   0.215786795399900   0.246847300343120   0.552000044444448   1.0
H166   H   0.401386982702569   0.126516003830240   0.548202727777777   1.0
H167   H   0.347713075969125   0.104517461738219   0.588111136111110   1.0
H168   H   0.485952604415843   0.116132960875341   0.598238838888889   1.0
H169   H   0.434691349509897   0.089198310573863   0.625586086111113   1.0
H170   H   0.475973933537141   0.184306196306849   0.639769447222221   1.0
H171   H   0.424661164400938   0.317408705385574   0.556422233333336   1.0
H172   H   0.471345349966064   0.236796272925403   0.547833336111111   1.0
H173   H   0.582469157447470   0.253564992405387   0.550741619444445   1.0
H174   H   0.567206033525046   0.210468227539010   0.594055599999997   1.0
H175   H   0.612658093897963   0.305135509739856   0.587916691666663   1.0
H176   H   0.476329970138707   0.442535498073276   0.562902769444442   1.0
H177   H   0.508772368389039   0.380760736011411   0.528605566666670   1.0
H178   H   0.604370702285031   0.409240688308046   0.497963905555558   1.0
H179   H   0.639235089199964   0.353276843097625   0.533255577777780   1.0
H180   H   0.673598186811532   0.452165104454402   0.518983311111114   1.0
H181   H   0.499655666067334   0.548869313533899   0.533752758333335   1.0
H182   H   0.541762782291634   0.520772538610117   0.498786077777780   1.0
H183   H   0.654526270481881   0.603524208848974   0.483825047222226   1.0
H184   H   0.672923549968345   0.592930337241235   0.530708313888887   1.0
H185   H   0.669770720730085   0.696371484735053   0.512797249999998   1.0
H186   H   0.557283613224975   0.644788176941667   0.466416677777779   1.0
H187   H   0.569946664594603   0.745860375634003   0.488419427777778   1.0
H188   H   0.488693235485407   0.850821295290352   0.497494488888890   1.0
H189   H   0.479623400057065   0.795074498356826   0.538497183333334   1.0
H190   H   0.414659083499629   0.814020814220946   0.514686161111108   1.0
H191   H   0.485498186690663   0.683019165158512   0.427966647222220   1.0
H192   H   0.504003184137858   0.781779662410429   0.441422250000002   1.0
H193   H   0.396898952963433   0.885099373979514   0.462311108333331   1.0
H194   H   0.347844246115805   0.802296669618009   0.473533313888886   1.0
H195   H   0.330491671096240   0.864441818593811   0.436758361111110   1.0
H196   H   0.462163111761583   0.885929546921140   0.407530572222221   1.0
H197   H   0.391769084773806   0.875291097083895   0.388586150000002   1.0
H198   H   0.403467050114436   0.789135811014873   0.303563916666668   1.0
H199   H   0.355705366374536   0.804691314279040   0.343266700000001   1.0
H200   H   0.398875949751457   0.707482504673258   0.336094433333336   1.0
H201   H   0.523384270175704   0.927104230841792   0.349713855555557   1.0
H202   H   0.446867189446465   0.955086159832653   0.346211116666666   1.0
H203   H   0.432437972036730   0.979096162827204   0.247338877777778   1.0
H204   H   0.428713534415792   0.029754247264094   0.293008327777777   1.0
H205   H   0.391567628341527   0.928285537959646   0.284261122222219   1.0
H206   H   0.588292383002660   0.971880447459171   0.313788891666668   1.0
H207   H   0.532585233587376   0.043317395493474   0.305625013888886   1.0
H208   H   0.554346219908176   0.141164725497944   0.262927797222225   1.0
H209   H   0.616560526395602   0.138827570852712   0.233755536111111   1.0
H210   H   0.633477451060521   0.124210822139474   0.282891644444447   1.0
H211   H   0.640645209268875   0.896427557136327   0.260875013888892   1.0
H212   H   0.676751105061285   0.988910902001621   0.276672205555556   1.0
H213   H   0.661783119824904   0.061663383537429   0.183063877777776   1.0
H214   H   0.746025409632999   0.073087293988124   0.184274991666669   1.0
H215   H   0.709797722694361   0.099734628309292   0.221177788888888   1.0
H216   H   0.787055032367341   0.021363495487471   0.254977755555558   1.0
H217   H   0.806150354034777   0.971714439690572   0.213138899999997   1.0
H218   H   0.851724299250229   0.816715443993836   0.202391677777776   1.0
H219   H   0.778214884068952   0.778356934326865   0.219199977777777   1.0
H220   H   0.846172802358481   0.749372381503946   0.235947238888890   1.0
H221   H   0.871110032624962   0.975826779766336   0.281411119444442   1.0
H222   H   0.897232474342132   0.928432420703544   0.246002783333331   1.0
H223   H   0.974503941527281   0.977033661416371   0.294602766666664   1.0
H224   H   0.003027304294157   0.894588547124236   0.265080558333331   1.0
H225   H   0.010853283752496   0.884128780572780   0.314347213888887   1.0
H226   H   0.857402318951770   0.831753671214514   0.342819425000002   1.0
H227   H   0.862944343146765   0.930839855823493   0.339552775000001   1.0
H228   H   0.915170641918372   0.039038990178263   0.370530552777780   1.0
H229   H   0.984107719422397   0.011108159166568   0.349313841666664   1.0
H230   H   0.976752671663562   0.018624044830332   0.399488872222221   1.0
H231   H   0.848650994753562   0.935897336101171   0.401988877777775   1.0
H232   H   0.916107628424541   0.934434926241423   0.430611080555558   1.0
H233   H   0.768920097859045   0.855003915840825   0.427527747222221   1.0
H234   H   0.809874702644223   0.905852790757770   0.460697175000000   1.0
H235   H   0.784572192635373   0.799589134444489   0.468616699999998   1.0
H236   H   0.895105624363573   0.714066219392258   0.392488902777778   1.0
H237   H   0.823695001801362   0.756166809934065   0.380011136111108   1.0
H238   H   0.716661052227721   0.617215006241494   0.424305597222222   1.0
H239   H   0.734355548500012   0.703810819214844   0.395700030555552   1.0
H240   H   0.734758451994942   0.702603937564810   0.445425033333336   1.0
H241   H   0.882287899128350   0.569380107503072   0.384919483333334   1.0
H242   H   0.817557870189596   0.610995337485008   0.363238863888888   1.0
H243   H   0.847957595224656   0.496232462727512   0.326838863888888   1.0
H244   H   0.816480418862973   0.393040272608552   0.333905538888892   1.0
H245   H   0.887436581536669   0.430926454829297   0.352488941666664   1.0
H246   H   0.796166998340667   0.452241713109238   0.437469483333331   1.0
H247   H   0.875302961156578   0.446251998030284   0.423800044444448   1.0
H248   H   0.750935105552777   0.341220804284873   0.469566666666665   1.0
H249   H   0.827414703073913   0.357561646835123   0.480786111111108   1.0
H250   H   0.811294211083222   0.258507371324107   0.471327783333337   1.0
H251   H   0.757076884501430   0.327114926807191   0.367980533333331   1.0
H252   H   0.719809234129094   0.324337111158954   0.407166694444442   1.0
H253   H   0.800697153939971   0.142850511814714   0.436477766666670   1.0
H254   H   0.741930951236498   0.073278882674551   0.418280602777777   1.0
H255   H   0.724428480863061   0.151458369339089   0.447386105555559   1.0
H256   H   0.666154047918035   0.122448369697011   0.363161086111113   1.0
H257   H   0.669564579482397   0.228935517409028   0.349911161111109   1.0
H258   H   0.616902578823165   0.334611629975406   0.409633319444445   1.0
H259   H   0.640195485728739   0.268411630939639   0.449355550000000   1.0
H260   H   0.563996911544812   0.274886585251110   0.438030561111113   1.0
H261   H   0.519074282161426   0.154868306963735   0.386858305555556   1.0
H262   H   0.557855132596160   0.146598927255333   0.347397274999999   1.0
H263   H   0.615736041046702   0.329630758352565   0.345236144444442   1.0
H264   H   0.556346631403621   0.380256256812494   0.316088888888892   1.0
H265   H   0.582483188469624   0.279407677231909   0.306930541666667   1.0
H266   H   0.446511148160091   0.177601281932205   0.344838883333331   1.0
H267   H   0.493940205321032   0.197020052955565   0.306675011111111   1.0
H268   H   0.359162764832263   0.227894643527577   0.254541661111112   1.0
H269   H   0.375625178075687   0.148629519568203   0.288280541666666   1.0
H270   H   0.428774432331316   0.191547486207071   0.260027780555553   1.0
H271   H   0.371277711538134   0.357676620481065   0.349111133333331   1.0
H272   H   0.361092894726923   0.253117996836615   0.359027755555559   1.0
H273   H   0.203278328884366   0.201445289929467   0.315930577777777   1.0
H274   H   0.268052455990585   0.174944780881333   0.342433294444447   1.0
H275   H   0.269336095413053   0.180653629487480   0.291908316666664   1.0
H276   H   0.264449856364031   0.412880579610217   0.360683338888890   1.0
H277   H   0.275398260608618   0.321744543245721   0.386758383333330   1.0
H278   H   0.172088701807759   0.253858642951464   0.413722249999999   1.0
H279   H   0.146965924742133   0.209727460096786   0.366611163888891   1.0
H280   H   0.098140305368076   0.263532942503822   0.393252797222225   1.0
H281   H   0.201931917620222   0.473263205901389   0.393833372222225   1.0
H282   H   0.208663533568313   0.391948364604453   0.426422225000003   1.0
H283   H   0.043356064588650   0.384873076087167   0.392027749999997   1.0
H284   H   0.055820030042597   0.490076618552592   0.378225008333331   1.0
H285   H   0.011993108711486   0.467809879119308   0.418505563888885   1.0
H286   H   0.144717199290668   0.347229638002872   0.469627805555554   1.0
H287   H   0.076051405392619   0.314120082358293   0.448955536111114   1.0
H288   H   0.016097934604495   0.509233648127832   0.482419438888890   1.0
H289   H   0.970240778243038   0.453799735321155   0.511605580555553   1.0
H290   H   0.972569033120905   0.425619895849394   0.464755588888892   1.0
H291   H   0.097603411467588   0.278520020660132   0.512869411111112   1.0
H292   H   0.017689380453867   0.277083306659939   0.499144450000003   1.0
H293   H   0.039189876983400   0.153674215772618   0.546666674999997   1.0
H294   H   0.962538848011945   0.201030203458657   0.539338852777774   1.0
H295   H   0.988745639830583   0.179868162488383   0.582491666666670   1.0
H296   H   0.109407754911743   0.350524601981576   0.579655544444442   1.0
H297   H   0.124263309263092   0.247830677823124   0.571616702777774   1.0
H298   H   0.073692591463832   0.405032614552752   0.641583336111111   1.0
H299   H   0.148639336121931   0.366954971358602   0.644297174999998   1.0
H300   H   0.087675833185756   0.341891291252381   0.678375033333332   1.0
H301   H   0.187948230840831   0.056292999975959   0.405336063888889   1.0
H302   H   0.034102626559559   0.265589115734528   0.628461097222221   1.0
H303   H   0.989261044482781   0.924779866655477   0.477886094444443   1.0
H304   H   0.008844903386034   0.934211428457033   0.519824983333336   1.0
H305   H   0.006398028981977   0.033374898599853   0.493013911111113   1.0
H306   H   0.421470805106423   0.057148689978909   0.441111144444441   1.0
H307   H   0.377466305847179   0.036746528704249   0.400799963888886   1.0
H308   H   0.389553148345399   0.141305222590866   0.416086094444445   1.0
H309   H   0.348087833093068   0.420843396986250   0.493688902777777   1.0
H310   H   0.341355767402703   0.353296083064038   0.454580519444441   1.0
H311   H   0.275290500484545   0.414904837357312   0.471786077777779   1.0
H312   H   0.314258813807925   0.195723772191776   0.703694450000000   1.0
H313   H   0.344265056511851   0.299260646979469   0.692230544444442   1.0
H314   H   0.267424686040769   0.263583976626471   0.675541666666668   1.0
H315   H   0.449153355942691   0.412133477602218   0.681674958333332   1.0
H316   H   0.509025339051568   0.484431709469739   0.677000047222222   1.0
H317   H   0.434686655324853   0.522509359049543   0.665608300000002   1.0
H318   H   0.759114732356821   0.535446713482642   0.602330527777781   1.0
H319   H   0.695316995739191   0.558345702605358   0.628811094444444   1.0
H320   H   0.736515276513124   0.451085865581852   0.631202805555553   1.0
H321   H   0.463802787785610   0.747661020654995   0.622519494444447   1.0
H322   H   0.540333894852182   0.714008729376459   0.634705544444444   1.0
H323   H   0.531456221182353   0.798414283219778   0.603636105555559   1.0
H324   H   0.322555631269459   0.592049142948255   0.535666677777776   1.0
H325   H   0.390073153486327   0.547490089549498   0.558641644444442   1.0
H326   H   0.345497139540718   0.626084720155710   0.581563844444446   1.0
H327   H   0.308224752820003   0.557905041602353   0.401113933333335   1.0
H328   H   0.331208480647746   0.588300727507637   0.357088938888886   1.0
H329   H   0.368434009844727   0.506883703023682   0.380230586111111   1.0
H330   H   0.627555844381710   0.698523512972656   0.363666641666669   1.0
H331   H   0.638907152121234   0.758963622893980   0.407155566666667   1.0
H332   H   0.580988802625924   0.675228683731191   0.403263941666666   1.0
H333   H   0.543772572787532   0.667176345914037   0.276738911111110   1.0
H334   H   0.572275008483963   0.718389266793487   0.236072222222219   1.0
H335   H   0.627574607067430   0.712393095821383   0.271230538888886   1.0
H336   H   0.544793909395167   0.850093318307046   0.156747236111109   1.0
H337   H   0.480382344838375   0.917212883012546   0.166983338888890   1.0
H338   H   0.546471026463948   0.959339048086541   0.145127774999999   1.0
H339   H   0.765336218754868   0.787954510282667   0.143822247222225   1.0
H340   H   0.696235219559640   0.835846892651233   0.117408327777781   1.0
H341   H   0.768723335611810   0.871012742853893   0.110713905555556   1.0
H342   H   0.712055831831094   0.937219076455435   0.361608294444444   1.0
H343   H   0.663357213117997   0.872455791419860   0.333144455555555   1.0
H344   H   0.728199738529206   0.831951709408436   0.362863858333334   1.0
H345   H   0.920225674866636   0.624762864859733   0.254663891666667   1.0
H346   H   0.990268261056769   0.649136805260731   0.225886133333333   1.0
H347   H   0.998223068254077   0.610375999581869   0.272241647222223   1.0
H348   H   0.068829293955872   0.702833769914967   0.388727827777778   1.0
H349   H   0.996887914601359   0.656825212057093   0.394722197222222   1.0
H350   H   0.028634032161314   0.664155907456717   0.350338936111115   1.0
H351   H   0.993992787689194   0.651384560792209   0.492497233333332   1.0
H352   H   0.058477716455315   0.714193862169743   0.478669486111109   1.0
H353   H   0.004272523545438   0.751990523949367   0.509761069444444   1.0
H354   H   0.834264001585119   0.485236301493529   0.506344477777780   1.0
H355   H   0.864256086776876   0.575420856704682   0.527480550000000   1.0
H356   H   0.783719378207685   0.540427591491131   0.534911155555555   1.0
H357   H   0.624496659918691   0.548396864760306   0.346552744444445   1.0
H358   H   0.651804411467673   0.578945774360918   0.302411133333337   1.0
H359   H   0.633777237083450   0.468671961158897   0.314158333333331   1.0
H360   H   0.957690045322870   0.161835077728220   0.406316652777775   1.0
H361   H   0.003921644925640   0.243654398224074   0.423899969444442   1.0
H362   H   0.973908829425696   0.164114742357661   0.453916655555552   1.0
H363   H   0.838358464666435   0.251240628219065   0.282124997222219   1.0
H364   H   0.880362463418734   0.183073727353332   0.310783333333333   1.0
H365   H   0.827208650837719   0.137045993385549   0.281277763888887   1.0
H366   H   0.600571298247893   0.907596067090331   0.404144394444444   1.0
H367   H   0.655467993336430   0.950137318635143   0.433547233333336   1.0
H368   H   0.574706465160510   0.946791192820768   0.442833372222225   1.0
H369   H   0.521219894825705   0.409113045530553   0.449288897222225   1.0
H370   H   0.533690831284986   0.509252766766878   0.422705544444447   1.0
H371   H   0.460312595620010   0.458058964526465   0.426083352777780   1.0
H372   H   0.492131866572599   0.538479942398872   0.314199977777775   1.0
H373   H   0.479089368578798   0.504667856590153   0.268305566666669   1.0
H374   H   0.413642483240380   0.545823421871766   0.294777763888888   1.0
H375   H   0.316746432051609   0.464949120250459   0.237858350000003   1.0
H376   H   0.243696128780556   0.488952801450537   0.253169430555559   1.0
H377   H   0.305952612661123   0.551276748653848   0.273241680555557   1.0
H378   H   0.057611034974009   0.391048045286780   0.278744433333330   1.0
H379   H   0.123953642964466   0.320627060709441   0.266794469444442   1.0
H380   H   0.048556682860607   0.279612049991599   0.279816680555555   1.0
H381   H   0.171180803320475   0.638939016426484   0.493949997222224   1.0
H382   H   0.253754418097159   0.624852263973487   0.480869400000003   1.0
H383   H   0.205514414703849   0.667502026885444   0.448366694444445   1.0
H384   H   0.196104489785611   0.522119853496562   0.555863911111111   1.0
H385   H   0.191254305075987   0.426494761962246   0.579755572222226   1.0
H386   H   0.254822532586665   0.430734866142863   0.549688869444445   1.0
H387   H   0.915362756828728   0.503026769830264   0.579880611111108   1.0
H388   H   0.938955538768717   0.477011621342008   0.625883313888892   1.0
H389   H   0.982500921432916   0.555548761932428   0.600672191666668   1.0
H390   H   0.136633540930312   0.008292099854593   0.592108302777781   1.0
H391   H   0.164265069441939   0.034728662993793   0.637177788888891   1.0
H392   H   0.089991528073512   0.002091613593656   0.626775000000002   1.0
O393   O   0.079111995300266   0.041791224908664   0.436875024999999   1.0
O394   O   0.279127392414594   0.186834926867213   0.436841647222224   1.0
O395   O   0.396674091193361   0.245602047316332   0.498925000000000   1.0
O396   O   0.363388444908409   0.334930861439325   0.624166700000004   1.0
O397   O   0.539528176873816   0.325307704565688   0.651208347222223   1.0
O398   O   0.585429960786875   0.527688147538932   0.610477766666669   1.0
O399   O   0.620477078926896   0.725515589433421   0.571938938888891   1.0
O400   O   0.415061986994559   0.583236912664184   0.483208338888886   1.0
O401   O   0.309887885714787   0.726320175071564   0.399841627777775   1.0
O402   O   0.504799612127265   0.681154459286859   0.339247174999997   1.0
O403   O   0.471837250899348   0.811383431809119   0.248738872222219   1.0
O404   O   0.518329321554120   0.058975024473803   0.206861125000003   1.0
O405   O   0.671396370416772   0.831389740193721   0.197675016666665   1.0
O406   O   0.753268185790525   0.765342964853282   0.291552755555557   1.0
O407   O   0.894890099430619   0.716077693066083   0.310516675000002   1.0
O408   O   0.034747261844856   0.863937333009240   0.404105505555556   1.0
O409   O   0.886349657513293   0.801045088411094   0.497619416666666   1.0
O410   O   0.899996604445789   0.578122063698082   0.457930566666668   1.0
O411   O   0.689999706824253   0.481245269629483   0.398022227777780   1.0
O412   O   0.892304142226649   0.276591611534286   0.373669413888891   1.0
O413   O   0.800111692558126   0.082250722304927   0.357702788888886   1.0
O414   O   0.609683259536403   0.110915864865703   0.457397250000000   1.0
O415   O   0.446155111558525   0.302613100973971   0.400841713888887   1.0
O416   O   0.445588239524227   0.350026578675802   0.252958350000000   1.0
O417   O   0.247364315822857   0.325090662674441   0.262133333333331   1.0
O418   O   0.148242504147774   0.457892956757874   0.321872236111112   1.0
O419   O   0.088312958711946   0.583830790976862   0.440794416666670   1.0
O420   O   0.090189695765368   0.516091767040855   0.534772236111110   1.0
O421   O   0.920736254158953   0.337906593954109   0.562349955555554   1.0
O422   O   0.144097871378221   0.180691873151211   0.661547238888886   1.0
O423   O   0.082520652938463   0.955105278471692   0.486311066666666   1.0
O424   O   0.332515534777627   0.064134572996785   0.452522172222224   1.0
O425   O   0.302977782984378   0.313621937725152   0.504461077777776   1.0
O426   O   0.342630027824711   0.206228116972738   0.647880555555552   1.0
O427   O   0.478353833820094   0.433531685488426   0.628686163888887   1.0
O428   O   0.678606310703088   0.480383315302916   0.583486133333331   1.0
O429   O   0.520086146072302   0.682597622794553   0.578641680555556   1.0
O430   O   0.400047134864806   0.667923447922028   0.534402741666668   1.0
O431   O   0.386498658067417   0.630171492084941   0.399550013888891   1.0
O432   O   0.558155007630582   0.779800104220207   0.377419472222222   1.0
O433   O   0.560370850362673   0.797386072084230   0.282891644444447   1.0
O434   O   0.559649398159095   0.931542258274618   0.198497241666665   1.0
O435   O   0.734505486017227   0.907864264431595   0.159488891666669   1.0
O436   O   0.756716247411134   0.905092898290853   0.313569438888891   1.0
O437   O   0.966764659262928   0.739034038105927   0.262555547222220   1.0
O438   O   0.995135826431564   0.775157704027698   0.363933352777778   1.0
O439   O   0.965663619890719   0.750343102623702   0.457822269444442   1.0
O440   O   0.808455376913031   0.601314696981227   0.483522202777778   1.0
O441   O   0.718905041330800   0.519463467387411   0.337702749999998   1.0
O442   O   0.912373807118335   0.253085966411284   0.437086105555558   1.0
O443   O   0.791711720146068   0.207479704565301   0.329544438888888   1.0
O444   O   0.596228427514255   0.040788658547463   0.403974958333336   1.0
O445   O   0.516099358788381   0.409036430490069   0.389686161111108   1.0
O446   O   0.443512861612589   0.424157607317014   0.310233327777780   1.0
O447   O   0.296273774653500   0.431909838694942   0.293141683333332   1.0
O448   O   0.105025100725641   0.319068923555811   0.319452763888890   1.0
O449   O   0.190042329274853   0.548205276073880   0.454072211111111   1.0
O450   O   0.166370870544860   0.417165262020340   0.526988877777775   1.0
O451   O   0.998101366119343   0.428825460714343   0.583491644444443   1.0
O452   O   0.102626011438765   0.125315514216837   0.608224977777780   1.0


# Number_of_total_atoms: 452
# Number_of_atom_type: 3
# Name_of_each_atom: C H O
# Number_of_each_atom: 150 242 60
# Created_by: Lihua Chen (lihua.chen@mse.gatech.edu)
# Tool: VASP
# K-points: 1 1 1
# Pseudopotential: PBE-HSE06
# Material_class: MC_Pol
# Geometry_class: GC_PD
# Bandgap_(eV): 5.53
