#======================================================================

# Note: Disordered slab of isotactic polyethyl acrylate
# Common_name: Disordered slab-1

#----------------------------------------------------------------------

data_1
_audit_creation_method   'vasp2cif'
_cell_length_a    13.04177
_cell_length_b    14.2190247
_cell_length_c    40.0
_cell_angle_alpha    90.0
_cell_angle_beta    90.0
_cell_angle_gamma    90.0

_symmetry_space_group_name_H-M    'P 1'
loop_
_atom_site_label
_atom_site_type_symbol
_atom_site_fract_x
_atom_site_fract_y
_atom_site_fract_z
_atom_site_occupancy
C1   C   0.972857610585066   0.762648116083518   0.514127492500002   1.0
C2   C   0.341233130165612   0.868133606941413   0.358755017500002   1.0
C3   C   0.952078230178877   0.612391586885700   0.435645007500000   1.0
C4   C   0.907651660779173   0.316204022066294   0.417777489999999   1.0
C5   C   0.147540157509297   0.161284768005217   0.471297505000003   1.0
C6   C   0.241492044408084   0.458871950619795   0.454199982500000   1.0
C7   C   0.511493838643069   0.297588125013945   0.478579997499999   1.0
C8   C   0.610284018196914   0.562085780749790   0.476214980000002   1.0
C9   C   0.481497825831923   0.915928713451073   0.403264999999997   1.0
C10   C   0.275183912919793   0.011028372431198   0.324084999999997   1.0
C11   C   0.198507135151132   0.848961961504997   0.270539999999997   1.0
C12   C   0.332676086144751   0.938996336366166   0.184864997500000   1.0
C13   C   0.213328758289713   0.655502905202773   0.145635010000000   1.0
C14   C   0.271319276447905   0.485245067476392   0.216064977499997   1.0
C15   C   0.648239050374301   0.294043458550291   0.103867507499999   1.0
C16   C   0.950099909751515   0.551466261958176   0.467869997500003   1.0
C17   C   0.598652230487119   0.994190100816127   0.137617492499999   1.0
C18   C   0.622168954060683   0.065399183109939   0.239147520000003   1.0
C19   C   0.795680632306812   0.999775849605214   0.300855017499998   1.0
C20   C   0.011653648239466   0.234644250952037   0.257327510000003   1.0
C21   C   0.933836710814560   0.511568954514864   0.275285005000001   1.0
C22   C   0.936443749583070   0.497165744426901   0.180257512499999   1.0
C23   C   0.716097952961903   0.692291645009945   0.166690017500002   1.0
C24   C   0.827371231052226   0.691707856728037   0.065302492500003   1.0
C25   C   0.490093330889906   0.668633257244430   0.074597505000000   1.0
C26   C   0.943958028703157   0.660081257190583   0.521455005000000   1.0
C27   C   0.881351519003942   0.661396368486514   0.553999997500000   1.0
C28   C   0.913977535257871   0.915021386804398   0.494412517500002   1.0
C29   C   0.392238568844569   0.333525871152048   0.124530004999997   1.0
C30   C   0.881926717002372   0.604036639728179   0.493987512499999   1.0
C31   C   0.605077685007480   0.677339789697392   0.380362509999998   1.0
C32   C   0.111302744949498   0.821660595329014   0.425145004999997   1.0
C33   C   0.908180791410985   0.447302992588512   0.461485005000000   1.0
C34   C   0.328589156226492   0.045221885014378   0.506187487500000   1.0
C35   C   0.273220958504865   0.605379924545737   0.528357505000002   1.0
C36   C   0.240794286358373   0.591954193595292   0.490812492499998   1.0
C37   C   0.197985756534578   0.295365680038522   0.430705022500000   1.0
C38   C   0.273190249483008   0.355637071226127   0.451879977499999   1.0
C39   C   0.115090528356198   0.242774112348229   0.450995014999997   1.0
C40   C   0.969813430232243   0.368324221280801   0.442827512500003   1.0
C41   C   0.250585963408341   0.026198196279942   0.476870012500001   1.0
C42   C   0.028292494040301   0.307089437716499   0.467812490000000   1.0
C43   C   0.838588979870060   0.101604134635196   0.399767494999999   1.0
C44   C   0.779647624517224   0.188030660077551   0.411377477499997   1.0
C45   C   0.472281346780385   0.375807259129381   0.457067490000000   1.0
C46   C   0.802811596892141   0.947836471512701   0.484875012499998   1.0
C47   C   0.692834231856565   0.459061893323806   0.345069979999998   1.0
C48   C   0.444700650295168   0.262234026501126   0.565197467499999   1.0
C49   C   0.581284986623750   0.530445087418691   0.440420007500002   1.0
C50   C   0.560137496674145   0.421633179946582   0.436539985000003   1.0
C51   C   0.598061819829667   0.702763586872450   0.512997485000000   1.0
C52   C   0.511723884104690   0.776995126817667   0.507555007500002   1.0
C53   C   0.525748023466143   0.684886137092086   0.407037497499999   1.0
C54   C   0.491933587235472   0.586665560824294   0.422672509999998   1.0
C55   C   0.692458515983645   0.567557365590623   0.345260000000003   1.0
C56   C   0.440613858394990   0.839094850155227   0.379370022499998   1.0
C57   C   0.426934733552272   0.738518500498841   0.393657494999999   1.0
C58   C   0.513035009818452   0.081398803674631   0.407497502500000   1.0
C59   C   0.031114227593342   0.752626338710840   0.411927509999998   1.0
C60   C   0.503120627031457   0.158605308562407   0.379029989999999   1.0
C61   C   0.512674652290293   0.241072272699547   0.533757495000003   1.0
C62   C   0.360241286267126   0.936471542946258   0.329152489999999   1.0
C63   C   0.379885920392709   0.346564740125956   0.434262515000000   1.0
C64   C   0.087517576218566   0.031908834084803   0.330332517499997   1.0
C65   C   0.609026566179281   0.990912773363419   0.045554995000003   1.0
C66   C   0.310493445291549   0.881742177436401   0.265635015000001   1.0
C67   C   0.382492959161219   0.876601100496011   0.296582510000000   1.0
C68   C   0.026513594397080   0.855713528650107   0.249317505000000   1.0
C69   C   0.011339289068893   0.764764998263210   0.229847479999997   1.0
C70   C   0.313775277435504   0.842287938356279   0.198535014999997   1.0
C71   C   0.358738430443104   0.824171168364309   0.235244989999998   1.0
C72   C   0.313299820499822   0.020255369554285   0.133719992499998   1.0
C73   C   0.227207227239859   0.037788217640553   0.108404995000001   1.0
C74   C   0.291500647534804   0.661544057940908   0.173579979999999   1.0
C75   C   0.353831182423861   0.759792800697504   0.174067500000000   1.0
C76   C   0.061907586163535   0.732090485784163   0.124537494999998   1.0
C77   C   0.014360359061690   0.828897484086937   0.134844995000002   1.0
C78   C   0.725613509515966   0.077305766266797   0.220895005000003   1.0
C79   C   0.331602619889786   0.480343170090983   0.182547522500002   1.0
C80   C   0.299145392074848   0.534812440405986   0.273937515000000   1.0
C81   C   0.382929955059780   0.526949784396955   0.301707507499998   1.0
C82   C   0.469582318964370   0.357542940339641   0.152584982500002   1.0
C83   C   0.414796779884938   0.399043634828203   0.184924985000002   1.0
C84   C   0.306544571787420   0.389507172035508   0.076784992500002   1.0
C85   C   0.314112677957056   0.471917929786002   0.053717495000001   1.0
C86   C   0.554854532781974   0.288550936971085   0.161632490000002   1.0
C87   C   0.692136481474520   0.289247123960621   0.044507504999999   1.0
C88   C   0.675167918158351   0.230030622283117   0.013597490000002   1.0
C89   C   0.634337616749875   0.074520744028249   0.160919999999997   1.0
C90   C   0.680841940932865   0.163788498095791   0.142122507499998   1.0
C91   C   0.566478714162265   0.950178566044691   0.079587507500001   1.0
C92   C   0.990240205125531   0.283325487155246   0.129877495000002   1.0
C93   C   0.368545465837840   0.581946495950596   0.173192499999999   1.0
C94   C   0.716550299537566   0.031409425711175   0.184292507499997   1.0
C95   C   0.598659829148957   0.230733919464953   0.130502509999999   1.0
C96   C   0.248968008176803   0.771382822058115   0.047477510000000   1.0
C97   C   0.832730833314805   0.516105186876850   0.197709990000000   1.0
C98   C   0.498466396815772   0.151058961167706   0.269372512499999   1.0
C99   C   0.478269813069851   0.252282535243083   0.281704997500000   1.0
C100   C   0.850596483452783   0.064055898292381   0.275307512500000   1.0
C101   C   0.826573731939760   0.039166645515429   0.236937522500000   1.0
C102   C   0.891120239047311   0.774329613479047   0.331330012499997   1.0
C103   C   0.894892733118283   0.246093693050554   0.258647490000001   1.0
C104   C   0.842338516934433   0.171222172502453   0.281912517499997   1.0
C105   C   0.141452026833782   0.152803187689798   0.228802490000000   1.0
C106   C   0.228963169876479   0.226303256931537   0.223687505000001   1.0
C107   C   0.901862538597136   0.428187687162541   0.253490020000001   1.0
C108   C   0.865824531486140   0.343603861944203   0.274725009999997   1.0
C109   C   0.036289913102287   0.561551355909806   0.321507505000000   1.0
C110   C   0.099693852904935   0.502166101448573   0.347897484999997   1.0
C111   C   0.823698324690589   0.858836056456106   0.333995010000002   1.0
C112   C   0.072527333329752   0.107575001258702   0.358287477499999   1.0
C113   C   0.818085574274043   0.449778563223113   0.228377485000003   1.0
C114   C   0.575518821448313   0.636141584309925   0.051532507499999   1.0
C115   C   0.053036106295387   0.545727457664519   0.037975002499998   1.0
C116   C   0.786126752733715   0.600182648251533   0.117735005000000   1.0
C117   C   0.739814020642903   0.660067170429770   0.089444995000001   1.0
C118   C   0.331050532251375   0.756423990177048   0.071412494999997   1.0
C119   C   0.969575778441119   0.624452969689266   0.035960007500002   1.0
C120   C   0.655692057136413   0.773148104876704   0.217045022500002   1.0
C121   C   0.737621013098682   0.513692939854025   0.175592517500000   1.0
C122   C   0.712655099729560   0.597053010253227   0.149490000000000   1.0
C123   C   0.023891273960516   0.377284146640520   0.145440007499999   1.0
C124   C   0.610506457329031   0.743061709429341   0.251165007499999   1.0
C125   C   0.663873377616689   0.590526535902285   0.070979999999999   1.0
H126   H   0.011830027672623   0.619705738326765   0.527822495000002   1.0
H127   H   0.768836147240748   0.428539406081768   0.338940000000001   1.0
H128   H   0.780360733244031   0.913467236610117   0.461122512499998   1.0
H129   H   0.805226905550398   0.024784491723963   0.479570007500001   1.0
H130   H   0.739491978466113   0.930746691789629   0.501012514999999   1.0
H131   H   0.820738680409178   0.645656983773293   0.484065007500000   1.0
H132   H   0.879488305651762   0.590639075266530   0.566727542499997   1.0
H133   H   0.841471993448742   0.546416675118373   0.506177520000001   1.0
H134   H   0.029235655896400   0.550348069934785   0.476735020000000   1.0
H135   H   0.142579174452550   0.868154536646948   0.406242515000002   1.0
H136   H   0.848610564363582   0.103671779963925   0.373105004999999   1.0
H137   H   0.831235714170703   0.454455374847193   0.450702477500002   1.0
H138   H   0.894762283033671   0.414642447312154   0.485480022499999   1.0
H139   H   0.020210761269368   0.409902312076298   0.428499985000002   1.0
H140   H   0.798594354907351   0.033603697164970   0.405644989999999   1.0
H141   H   0.914061910308185   0.099775661828623   0.412832500000000   1.0
H142   H   0.975380258967917   0.277347517372270   0.484455012500000   1.0
H143   H   0.060113328175547   0.349666204602627   0.487162495000000   1.0
H144   H   0.796156089242487   0.679885773037583   0.551167487500003   1.0
H145   H   0.071039759173793   0.209691695661796   0.430962514999997   1.0
H146   H   0.283142947621371   0.077889413892080   0.527932499999999   1.0
H147   H   0.177298365175894   0.787016904190338   0.435785007500002   1.0
H148   H   0.385621376546283   0.096962466068433   0.497835019999997   1.0
H149   H   0.558558002479728   0.398312297748525   0.410349990000000   1.0
H150   H   0.169929741131760   0.339637317037642   0.409582520000001   1.0
H151   H   0.281992697310258   0.318503729724867   0.475897502499997   1.0
H152   H   0.083553421046375   0.873872411235070   0.443109990000004   1.0
H153   H   0.335252415891404   0.554792819229014   0.537414980000001   1.0
H154   H   0.204963306361023   0.586869456665333   0.544737482499997   1.0
H155   H   0.295020139137556   0.674533697096678   0.533755017499999   1.0
H156   H   0.380008633797409   0.379478284470523   0.409229994999997   1.0
H157   H   0.394630767142800   0.272551182782600   0.426972485000000   1.0
H158   H   0.440575543043622   0.428258113933793   0.472762490000001   1.0
H159   H   0.461791919348371   0.330304750085986   0.573935034999998   1.0
H160   H   0.458709576997599   0.219678322944333   0.586725045000001   1.0
H161   H   0.359704556973476   0.979864153411313   0.518232490000003   1.0
H162   H   0.366988936317696   0.252352962014335   0.556634997499998   1.0
H163   H   0.649818536901051   0.537562319587224   0.426152514999998   1.0
H164   H   0.442477079414836   0.745635732667374   0.499332525000000   1.0
H165   H   0.529489800847585   0.826506293360616   0.488617515000001   1.0
H166   H   0.507805581604337   0.810337786388402   0.532600022499999   1.0
H167   H   0.428399274024919   0.593824919651489   0.439734985000001   1.0
H168   H   0.457482688316077   0.544306776540026   0.402099989999996   1.0
H169   H   0.556625757086650   0.731879479750816   0.425374984999998   1.0
H170   H   0.637159204617163   0.429312996411071   0.327015017500003   1.0
H171   H   0.683970365985601   0.428673008775348   0.369802522500002   1.0
H172   H   0.585195399090765   0.063865955588362   0.043269992500001   1.0
H173   H   0.631400791456990   0.392777389295908   0.447294999999997   1.0
H174   H   0.366889195254942   0.734158131112892   0.411332512500003   1.0
H175   H   0.533454032696483   0.140390219590799   0.354692507499998   1.0
H176   H   0.502116192817383   0.831668292973710   0.360962487499997   1.0
H177   H   0.248032598335961   0.661213535974795   0.198524999999997   1.0
H178   H   0.424810758048949   0.176229506092639   0.372222520000001   1.0
H179   H   0.298309569943342   0.904134543067499   0.378052519999997   1.0
H180   H   0.294782487346424   0.807158925604789   0.351802492499999   1.0
H181   H   0.428138511873769   0.974955138800766   0.331817485000002   1.0
H182   H   0.023546198100412   0.165047276414114   0.350484989999998   1.0
H183   H   0.145707584169941   0.141346642431813   0.359084987499998   1.0
H184   H   0.062820038997771   0.075821775596182   0.381767512499998   1.0
H185   H   0.391211024270476   0.805351509094713   0.305117512499997   1.0
H186   H   0.459077533187596   0.885982897265805   0.285405017499997   1.0
H187   H   0.360831696924571   0.781721168259871   0.148947499999999   1.0
H188   H   0.540170820371777   0.226647865658464   0.386780025000000   1.0
H189   H   0.927334610256125   0.742224809553925   0.228830004999999   1.0
H190   H   0.044064893032157   0.708361678280227   0.243970012500000   1.0
H191   H   0.347505323280508   0.751416656586862   0.238999987500002   1.0
H192   H   0.441349931796069   0.835247961838057   0.233115005000002   1.0
H193   H   0.230558014747999   0.829073206406342   0.197674990000003   1.0
H194   H   0.198300115705152   0.979871129979820   0.095322490000001   1.0
H195   H   0.257962193781978   0.081581636186343   0.088324999999998   1.0
H196   H   0.163396862542434   0.076771221868683   0.119190002499998   1.0
H197   H   0.316711964710315   0.954714664782884   0.256745004999999   1.0
H198   H   0.692013775737493   0.986010742354217   0.043157507499998   1.0
H199   H   0.433314274059427   0.747232143144110   0.180609990000001   1.0
H200   H   0.240410971823607   0.241430968187288   0.416192485000003   1.0
H201   H   0.513932104307926   0.419818653244199   0.145335007500002   1.0
H202   H   0.292037384496126   0.532892484531658   0.070339990000001   1.0
H203   H   0.935669353162950   0.837540692928116   0.128204990000000   1.0
H204   H   0.439793402275917   0.587889329709093   0.189112520000002   1.0
H205   H   0.391916526667778   0.574892580361016   0.147230004999997   1.0
H206   H   0.281241265564411   0.464069233946823   0.164422512500003   1.0
H207   H   0.356576139588412   0.563436168726817   0.323239995000002   1.0
H208   H   0.459698660534578   0.547626357242351   0.295585012499998   1.0
H209   H   0.390382961821899   0.452542395541378   0.309607505000002   1.0
H210   H   0.368008728876525   0.339398278139285   0.191289997500000   1.0
H211   H   0.469060940347823   0.422983434299823   0.203424977499999   1.0
H212   H   0.264272702248235   0.470089330388461   0.033952497500003   1.0
H213   H   0.058503124959266   0.886137696912506   0.125012492499998   1.0
H214   H   0.994165975937314   0.836781189359634   0.161460020000000   1.0
H215   H   0.515450318476709   0.230544110384727   0.175505017500001   1.0
H216   H   0.608022116629876   0.324376136712104   0.176660012500001   1.0
H217   H   0.536022610427878   0.196273067870820   0.117009997499999   1.0
H218   H   0.726196313843900   0.167164151560975   0.013385010000000   1.0
H219   H   0.692903263897463   0.269386401726976   0.992191005000002   1.0
H220   H   0.600868195037947   0.199240929653918   0.011077499999999   1.0
H221   H   0.732575700997643   0.194922806484755   0.161027480000001   1.0
H222   H   0.737329679943748   0.139412599796664   0.123202489999997   1.0
H223   H   0.565589226002302   0.082756168220172   0.174999999999997   1.0
H224   H   0.401899795809925   0.692509620578967   0.374270010000004   1.0
H225   H   0.397023111126785   0.483402521974661   0.046857500000002   1.0
H226   H   0.041496246291722   0.763583482628029   0.205114985000002   1.0
H227   H   0.969721441184745   0.583409303733752   0.335335017500000   1.0
H228   H   0.671893830361981   0.733539199773666   0.519762517499998   1.0
H229   H   0.909169874947956   0.710492640187901   0.572607519999998   1.0
H230   H   0.735405186565934   0.151614568895148   0.216452504999999   1.0
H231   H   0.547493515067359   0.296462822798247   0.283992482499997   1.0
H232   H   0.443811307820951   0.243554812869831   0.305822515000003   1.0
H233   H   0.431228613907472   0.284211623881632   0.262139987499999   1.0
H234   H   0.879894730546546   0.074738719597271   0.219622517500000   1.0
H235   H   0.830238886286139   0.964406053813242   0.231577492500001   1.0
H236   H   0.933338434890359   0.048386666070002   0.278492497499997   1.0
H237   H   0.976752664707320   0.783873186464049   0.335939979999999   1.0
H238   H   0.753171103308830   0.476918293840505   0.241485025000003   1.0
H239   H   0.877993201843005   0.735283299704797   0.307884979999997   1.0
H240   H   0.764879675074781   0.190274027725685   0.280224990000001   1.0
H241   H   0.861377244039730   0.246909536629474   0.232870007499997   1.0
H242   H   0.250785307515777   0.272755078623639   0.245032502500003   1.0
H243   H   0.209019527257418   0.277861012506719   0.202662515000000   1.0
H244   H   0.295089163510781   0.185569183236595   0.219657517500004   1.0
H245   H   0.903994266115717   0.341198718080854   0.298990009999997   1.0
H246   H   0.785053286478750   0.344567387944686   0.280534982500001   1.0
H247   H   0.969123424197790   0.405633425758097   0.240425015000000   1.0
H248   H   0.117053490438799   0.539763567609526   0.370452499999999   1.0
H249   H   0.165789206526412   0.473408904057955   0.338485002500001   1.0
H250   H   0.573532902359112   0.954088763907976   0.024624995000004   1.0
H251   H   0.064284579470424   0.435593321671355   0.354597519999999   1.0
H252   H   0.865203411806831   0.721386467526145   0.348509980000003   1.0
H253   H   0.799644864155709   0.382425082924286   0.215544987500003   1.0
H254   H   0.043229147577364   0.255995954490466   0.110579992500000   1.0
H255   H   0.793426344736950   0.530529467326971   0.109445000000001   1.0
H256   H   0.913425432284114   0.288410224085197   0.120352507500002   1.0
H257   H   0.666028069809542   0.500028170005216   0.189352512500001   1.0
H258   H   0.739077947241825   0.452619791848314   0.157964992499998   1.0
H259   H   0.637197519968531   0.585863804006195   0.139820004999997   1.0
H260   H   0.991443983447034   0.230157248408183   0.150145004999999   1.0
H261   H   0.601381974992655   0.805506041493828   0.268235017499997   1.0
H262   H   0.666618480466994   0.697158392305205   0.263087512500000   1.0
H263   H   0.537709590032641   0.707187146246397   0.249677515000002   1.0
H264   H   0.867710855198332   0.187439909292792   0.306319999999999   1.0
H265   H   0.103274685874695   0.566242254294700   0.017232489999998   1.0
H266   H   0.025348131426945   0.474850514887990   0.031322502499997   1.0
H267   H   0.091090741517448   0.546395611789045   0.062357497500003   1.0
H268   H   0.633586192671700   0.543969278005406   0.091980005000004   1.0
H269   H   0.712862188184580   0.552858776593865   0.055515002500002   1.0
H270   H   0.595117380539605   0.699823764987201   0.036152507499999   1.0
H271   H   0.281087996491273   0.805020987128607   0.027139997500001   1.0
H272   H   0.843680351670059   0.587959615823721   0.205742502500002   1.0
H273   H   0.195087384611135   0.816048424193255   0.061104989999997   1.0
H274   H   0.207355650345008   0.704648266065675   0.041545010000000   1.0
H275   H   0.856546626723215   0.623763766301074   0.126585007499997   1.0
H276   H   0.702733110613053   0.721864678946652   0.099797510000002   1.0
H277   H   0.542202806827603   0.593072526275307   0.029180002499999   1.0
H278   H   0.703561318747376   0.959384633462236   0.186577512500001   1.0
H279   H   0.967697206744177   0.936949887990558   0.474305010000002   1.0
H280   H   0.068179702601718   0.707166082917063   0.392899989999996   1.0
H281   H   0.962360569155877   0.789070329134461   0.402584982500002   1.0
H282   H   0.712524787663021   0.162874201913439   0.424849989999999   1.0
H283   H   0.744897640427638   0.233146173520609   0.392054987500003   1.0
H284   H   0.182382061637341   0.987023505205670   0.484509992500001   1.0
H285   H   0.295257790928687   0.986257025068674   0.458692502500000   1.0
H286   H   0.296108963737282   0.623763766301074   0.473479984999997   1.0
H287   H   0.159425024364026   0.625725841801234   0.490850020000003   1.0
H288   H   0.494525275326893   0.167248658060210   0.527197504999997   1.0
H289   H   0.021284235191999   0.665651308700518   0.132732509999997   1.0
H290   H   0.065549706826602   0.727673769354944   0.096447495000000   1.0
H291   H   0.574169380383182   0.659251460474643   0.533144999999998   1.0
H292   H   0.763852130500695   0.590702391845483   0.359479999999998   1.0
H293   H   0.483867212809301   0.105008088212969   0.431582499999997   1.0
H294   H   0.591038202636604   0.057226934840337   0.410902499999999   1.0
H295   H   0.078845440457854   0.063233085177778   0.305782510000000   1.0
H296   H   0.033981959503961   0.973872096867517   0.334800004999998   1.0
H297   H   0.991697001250600   0.844889994459322   0.273939990000002   1.0
H298   H   0.985409603144362   0.914444849371421   0.239137507499997   1.0
H299   H   0.331303542387268   0.088621605671733   0.143772507500003   1.0
H300   H   0.385690262901434   0.993908675044359   0.122752499999997   1.0
H301   H   0.645938695437813   0.353133334102722   0.040630007499999   1.0
H302   H   0.695548618017341   0.595969961287146   0.320472479999999   1.0
H303   H   0.287866209877954   0.611076475589776   0.272949984999997   1.0
H304   H   0.592280441995221   0.245320102721251   0.540229987499998   1.0
H305   H   0.080586024749707   0.625282773438038   0.313555002500003   1.0
H306   H   0.938958791636409   0.942836248114823   0.518349982499998   1.0
H307   H   0.237688979333328   0.392538350397551   0.092347502499997   1.0
H308   H   0.767172270328338   0.322097492382866   0.048539994999999   1.0
H309   H   0.597310388083827   0.876572934007214   0.082607507500001   1.0
H310   H   0.481727878961216   0.952119578215516   0.080769992500002   1.0
H311   H   0.429235088488753   0.117976530415618   0.259154987499997   1.0
H312   H   0.511999858914855   0.109909985598378   0.291610002500001   1.0
H313   H   0.821444037120727   0.886299198847304   0.359477519999999   1.0
H314   H   0.745940543346492   0.839221483313125   0.325917482500003   1.0
H315   H   0.149380337178158   0.110409260348213   0.249737500000002   1.0
H316   H   0.233295357915374   0.494894203257132   0.282515002499999   1.0
H317   H   0.311743290979678   0.322020096075931   0.062992502500002   1.0
H318   H   0.792161294057479   0.032429298754927   0.170959997499999   1.0
H319   H   0.059622589571816   0.417469729833158   0.125182510000002   1.0
H320   H   0.084327886475535   0.366024513622229   0.164260007499998   1.0
H321   H   0.734523304735475   0.795189018836155   0.223570015000000   1.0
H322   H   0.604748036501178   0.824951868885918   0.207732487500003   1.0
H323   H   0.933675689726165   0.623468387392279   0.011512494999998   1.0
H324   H   0.007666459383962   0.691961116011001   0.042297507500003   1.0
H325   H   0.305517180566746   0.735297386465611   0.097252490000002   1.0
H326   H   0.367165162397434   0.820711149056514   0.076825000000000   1.0
H327   H   0.144779780658609   0.095028430466122   0.209660005000004   1.0
O328   O   0.677483478086181   0.735206037021655   0.379494999999999   1.0
O329   O   0.646743793212117   0.513587370025455   0.498097514999998   1.0
O330   O   0.559416781617834   0.226753435487034   0.467500020000003   1.0
O331   O   0.220237360419638   0.505359048993000   0.429552507499999   1.0
O332   O   0.009936097630920   0.547675587060482   0.186985017500000   1.0
O333   O   0.907720692820071   0.347162474512054   0.389017487499998   1.0
O334   O   0.896932325903613   0.589760055765289   0.410445022499999   1.0
O335   O   0.519997201300129   0.893522134468199   0.429532479999999   1.0
O336   O   0.894524631242540   0.615408678486929   0.061322500000003   1.0
O337   O   0.093483085501433   0.127724125832621   0.494237519999999   1.0
O338   O   0.290335184564675   0.083072610458295   0.309280014999999   1.0
O339   O   0.673481076571662   0.376355756664523   0.107417487500001   1.0
O340   O   0.177336680527262   0.782543988407305   0.289524985000000   1.0
O341   O   0.203682820660077   0.590196013936172   0.126082492499997   1.0
O342   O   0.182389667966845   0.467656020036309   0.218970012500002   1.0
O343   O   0.344369299565933   0.262367629194706   0.127419997499999   1.0
O344   O   0.554026324647651   0.923052922188113   0.148447490000002   1.0
O345   O   0.590478501001016   0.987072868647594   0.243975020000001   1.0
O346   O   0.715653205048085   0.018834815020753   0.314407492500003   1.0
O347   O   0.065189341630777   0.248548200355820   0.282439994999997   1.0
O348   O   0.895713051219275   0.590589845448399   0.271192505000002   1.0
O349   O   0.774724872467466   0.756431100369355   0.156610012500003   1.0
O350   O   0.831266292842152   0.771347671967966   0.050987505000002   1.0
O351   O   0.060205393899757   0.785750882055929   0.520289994999999   1.0
O352   O   0.458571512915810   0.999339757810532   0.394789982500001   1.0
O353   O   0.281893101933250   0.953258974224866   0.155402517500001   1.0
O354   O   0.392430153269075   0.998149394873757   0.195259999999997   1.0
O355   O   0.599035545021877   0.593325644901654   0.360230017500001   1.0
O356   O   0.604778753190708   0.657908175657084   0.480627490000003   1.0
O357   O   0.481398230454914   0.307398903386108   0.509602500000000   1.0
O358   O   0.660208230937975   0.693726412895252   0.196282484999998   1.0
O359   O   0.233050023118025   0.113693557336603   0.461464977500000   1.0
O360   O   0.845620203392635   0.247718270016087   0.431390000000000   1.0
O361   O   0.180135380396983   0.979034363728196   0.334172487499998   1.0
O362   O   0.010373162538521   0.692059575647264   0.438329982500001   1.0
O363   O   0.243309336079385   0.492249753247847   0.483857489999998   1.0
O364   O   0.493037770179967   0.666952340268459   0.104850007499998   1.0
O365   O   0.126500014951958   0.891827130731407   0.250132512500002   1.0
O366   O   0.153428882736009   0.734537882897129   0.141562510000000   1.0
O367   O   0.334761600610960   0.509536459276283   0.241237497500002   1.0
O368   O   0.384325463491535   0.396005479897646   0.100177502500003   1.0
O369   O   0.661987207257908   0.244666035357547   0.075262500000001   1.0
O370   O   0.580426207485644   0.151164530996276   0.246425010000003   1.0
O371   O   0.855940865388668   0.925176900494449   0.309444999999997   1.0
O372   O   0.044386927541275   0.194704830915725   0.228025007500001   1.0
O373   O   0.012282450924992   0.496863388949592   0.295427512499998   1.0
O374   O   0.935638644141093   0.418890277333858   0.160174990000002   1.0
O375   O   0.901916212293273   0.814177698137058   0.498282480000000   1.0
O376   O   0.614600993576794   0.007603355524097   0.105022502499999   1.0
O377   O   0.406370047930608   0.700168373714128   0.057030009999998   1.0


# Number_of_total_atoms: 377
# Number_of_atom_type: 3
# Name_of_each_atom: C H O
# Number_of_each_atom: 125 202 50
# Created_by: Lihua Chen (lihua.chen@mse.gatech.edu)
# Tool: VASP
# K-points: 1 1 1
# Pseudopotential: PBE-HSE06
# Material_class: MC_Pol
# Geometry_class: GC_PD
# Bandgap_(eV): 5.36
