#======================================================================

# Note: Disordered slab of isotactic polyethyl acrylate
# Common_name: Disordered slab-2

#----------------------------------------------------------------------

data_1
_audit_creation_method   'vasp2cif'
_cell_length_a    13.7911768
_cell_length_b    13.5742874
_cell_length_c    40.0
_cell_angle_alpha    90.0
_cell_angle_beta    90.0
_cell_angle_gamma    90.0

_symmetry_space_group_name_H-M    'P 1'
loop_
_atom_site_label
_atom_site_type_symbol
_atom_site_fract_x
_atom_site_fract_y
_atom_site_fract_z
_atom_site_occupancy
C1   C   0.781810606619153   0.849764143051814   0.515385007500001   1.0
C2   C   0.353522347708569   0.851046169834298   0.357347487500000   1.0
C3   C   0.967864402985541   0.690168354620219   0.444449997500001   1.0
C4   C   0.832183407292696   0.471151369610752   0.380717517500003   1.0
C5   C   0.938816809309557   0.228604538017961   0.450185012500000   1.0
C6   C   0.142438084036456   0.383058288569906   0.459030007499997   1.0
C7   C   0.336743540261189   0.186237680513528   0.448945000000002   1.0
C8   C   0.519084752796438   0.431591230343329   0.446395015000000   1.0
C9   C   0.454021363862147   0.836238747972878   0.408484985000001   1.0
C10   C   0.329797040960273   0.024866388198028   0.330502510000002   1.0
C11   C   0.279931803934240   0.842647776854939   0.276020002499997   1.0
C12   C   0.418085366000092   0.944060253210786   0.189769984999998   1.0
C13   C   0.261289377422820   0.672848859823020   0.165597487500001   1.0
C14   C   0.267445617838789   0.486047171802184   0.233707522499998   1.0
C15   C   0.638160784074643   0.322657291019198   0.122644999999999   1.0
C16   C   0.877705265876948   0.639882105339836   0.458624982499998   1.0
C17   C   0.655374695798258   0.999223252043421   0.143024992500003   1.0
C18   C   0.676453455371551   0.057295405429535   0.246047500000003   1.0
C19   C   0.840166757923079   0.009845386064242   0.308470010000001   1.0
C20   C   0.048095177780624   0.238306741612085   0.271317484999997   1.0
C21   C   0.970402242976107   0.537261646604009   0.265959977500003   1.0
C22   C   0.020976346268000   0.428224563743953   0.163947487500003   1.0
C23   C   0.802512357031056   0.671021787854585   0.156864977500000   1.0
C24   C   0.950454655907244   0.722140574392142   0.059910012499998   1.0
C25   C   0.659319348295206   0.712173222441130   0.046597505000001   1.0
C26   C   0.857808573667185   0.777811938768885   0.505219984999997   1.0
C27   C   0.885021588585538   0.706537567489548   0.533272504999999   1.0
C28   C   0.766996794646268   0.017912034188988   0.535027505000002   1.0
C29   C   0.378117717989085   0.323740213427335   0.141790010000001   1.0
C30   C   0.812859429080774   0.715613513531473   0.476125002499998   1.0
C31   C   0.540388119743341   0.596410261653958   0.372157479999998   1.0
C32   C   0.201642589340167   0.724306419208425   0.483727502500003   1.0
C33   C   0.825265955549206   0.574618974105412   0.432240010000001   1.0
C34   C   0.065026256497561   0.077782602422282   0.490807484999998   1.0
C35   C   0.267590558334369   0.449927330991976   0.522580005000002   1.0
C36   C   0.168708503541190   0.405335745285605   0.520012522499997   1.0
C37   C   0.052924337827356   0.315157891824214   0.408869982500001   1.0
C38   C   0.138131011415936   0.304136981805762   0.431780005000000   1.0
C39   C   0.951129021854030   0.308019321883520   0.424137500000001   1.0
C40   C   0.882106594413322   0.493030897518793   0.413992499999999   1.0
C41   C   0.984469229630932   0.061479713476523   0.464407492500001   1.0
C42   C   0.899175558390347   0.404709480366534   0.438857507500003   1.0
C43   C   0.668267076381760   0.252745746343926   0.370020007500003   1.0
C44   C   0.709155537763827   0.352588991153965   0.359002494999999   1.0
C45   C   0.325163643758088   0.290169397768899   0.432105017500000   1.0
C46   C   0.698279047513914   0.068028823376764   0.510519982500000   1.0
C47   C   0.504836469067669   0.542175341005375   0.284852505000003   1.0
C48   C   0.410421081687531   0.186532333181631   0.532697487500002   1.0
C49   C   0.458654761064338   0.419384261747695   0.413789987500003   1.0
C50   C   0.412545534185305   0.318730823394823   0.408230019999998   1.0
C51   C   0.550278515753639   0.542094268609638   0.493607522500000   1.0
C52   C   0.528068721445152   0.653054111702396   0.501889992499997   1.0
C53   C   0.456965260571529   0.605441940178750   0.396332504999997   1.0
C54   C   0.392880772872118   0.509053889635489   0.404435014999997   1.0
C55   C   0.571647301338345   0.571082854780279   0.315202522500002   1.0
C56   C   0.421964599859237   0.787315177959179   0.377124977500003   1.0
C57   C   0.380894964670453   0.680561979260879   0.382847499999997   1.0
C58   C   0.565933488721569   0.957622467902070   0.431179999999998   1.0
C59   C   0.135266846843699   0.713315020868059   0.452850007499997   1.0
C60   C   0.640256341286261   0.038539319566787   0.419482517500000   1.0
C61   C   0.384049082743978   0.122830992955109   0.502202509999996   1.0
C62   C   0.397854953175568   0.938284377270513   0.336877489999999   1.0
C63   C   0.228195827349559   0.299591704533974   0.412494995000003   1.0
C64   C   0.171514652759725   0.092000718947503   0.339327480000002   1.0
C65   C   0.646659029126504   0.033404596988277   0.052874995000003   1.0
C66   C   0.378676045977457   0.896197696536170   0.271514990000000   1.0
C67   C   0.440258926997444   0.900455481736742   0.304432487500002   1.0
C68   C   0.114731963990195   0.875371314150897   0.286297512499999   1.0
C69   C   0.055570957512487   0.839118958097202   0.256454992499997   1.0
C70   C   0.397760769769846   0.849955799521382   0.208505010000003   1.0
C71   C   0.442775057455577   0.846021744021712   0.244397497500003   1.0
C72   C   0.382091273023200   0.034104486398306   0.140240002500001   1.0
C73   C   0.308718281386980   0.021072428450275   0.109672500000002   1.0
C74   C   0.335699358157747   0.672944548087287   0.192082499999998   1.0
C75   C   0.417925763956561   0.756890140693500   0.186652517500001   1.0
C76   C   0.108757100409299   0.743578185916412   0.151875019999999   1.0
C77   C   0.064011129202548   0.851127102259525   0.150707482500003   1.0
C78   C   0.773587994318220   0.068669844134874   0.226340007499999   1.0
C79   C   0.332204326464726   0.479947411456749   0.202092505000003   1.0
C80   C   0.251442545497639   0.459614778747060   0.293120002499997   1.0
C81   C   0.284702955878281   0.392782555937338   0.321955015000000   1.0
C82   C   0.453310771855236   0.361524981414497   0.168142510000003   1.0
C83   C   0.397202441781474   0.389467457422477   0.200032520000001   1.0
C84   C   0.337156789984739   0.358423470538867   0.084450007500003   1.0
C85   C   0.382722212654109   0.409129705033358   0.053605007500003   1.0
C86   C   0.530512240260741   0.276923766915381   0.175772475000002   1.0
C87   C   0.715616190200677   0.356544963089554   0.072974995000003   1.0
C88   C   0.629894607688591   0.407486841629712   0.051970005000001   1.0
C89   C   0.675394749489399   0.071918618726166   0.170139980000002   1.0
C90   C   0.694957996622882   0.179644295729290   0.155742502499997   1.0
C91   C   0.666541342577815   0.973719224480249   0.084194994999997   1.0
C92   C   0.044433423549471   0.168004716033934   0.159490012500001   1.0
C93   C   0.393852488353275   0.576350225205928   0.198194979999997   1.0
C94   C   0.762298116575522   0.026406115432621   0.189979982499999   1.0
C95   C   0.596967780153470   0.240023096903045   0.145822502500003   1.0
C96   C   0.530918296979557   0.603607560276053   0.115175010000001   1.0
C97   C   0.936837297307363   0.491285030549747   0.177995015000001   1.0
C98   C   0.545137554903945   0.139060250043030   0.273180009999997   1.0
C99   C   0.524102359415771   0.249622164328123   0.281122494999998   1.0
C100   C   0.886819789011767   0.067638482444387   0.279407502500000   1.0
C101   C   0.861564591065211   0.025720981861632   0.243914987499998   1.0
C102   C   0.738174083882384   0.796317492143274   0.321544979999999   1.0
C103   C   0.937613170182836   0.248708694645728   0.263199997500003   1.0
C104   C   0.868068662566927   0.180918742003357   0.283444977499997   1.0
C105   C   0.196392848795902   0.187747903436907   0.246950009999999   1.0
C106   C   0.242154034309820   0.118270959844274   0.219925022500000   1.0
C107   C   0.959997090313571   0.443709678638456   0.243982507500000   1.0
C108   C   0.912734974146659   0.362777363915249   0.267552520000002   1.0
C109   C   0.028959769408509   0.614466458106669   0.314370012500000   1.0
C110   C   0.088577582443868   0.588792837847237   0.346780015000000   1.0
C111   C   0.833648169893664   0.847745547217457   0.331842517500000   1.0
C112   C   0.087134609136470   0.067174384417413   0.362825012499996   1.0
C113   C   0.900988289846303   0.452174255570867   0.211412477499998   1.0
C114   C   0.746309705782323   0.669548517147206   0.028089999999999   1.0
C115   C   0.939273623118225   0.987325831925439   0.032712507500001   1.0
C116   C   0.909783746663301   0.610399902097257   0.107972502499997   1.0
C117   C   0.870157012271790   0.668959071840483   0.076784992500002   1.0
C118   C   0.554578467879551   0.683751745229735   0.091505002500000   1.0
C119   C   0.994816439449892   0.888801146202340   0.040757489999997   1.0
C120   C   0.705972241614653   0.715723957634786   0.202362489999999   1.0
C121   C   0.851065102725677   0.490997685815906   0.153499985000003   1.0
C122   C   0.827680571827635   0.586803753690965   0.133852505000000   1.0
C123   C   0.083683141528574   0.272194273711932   0.161282492500000   1.0
C124   C   0.665163577628853   0.665076731762731   0.233077477499997   1.0
C125   C   0.817616187764337   0.608447630186468   0.051014995000003   1.0
H126   H   0.921349119387692   0.818757101017326   0.498327494999998   1.0
H127   H   0.545616216014288   0.513709750981107   0.263714982499998   1.0
H128   H   0.642525879299875   0.012224818519755   0.505737494999998   1.0
H129   H   0.739399439792550   0.089193853373104   0.488442517499998   1.0
H130   H   0.676402698281699   0.138176152068212   0.522987510000000   1.0
H131   H   0.786168501588641   0.767049009143570   0.457530022500002   1.0
H132   H   0.821647692893038   0.659912637476644   0.539055015000002   1.0
H133   H   0.749492864162249   0.673158268330170   0.485457515000000   1.0
H134   H   0.906484550324961   0.586987954888890   0.477192497499999   1.0
H135   H   0.181803847224991   0.782629952272856   0.502094984999999   1.0
H136   H   0.730988322910918   0.202437433290235   0.369925022499999   1.0
H137   H   0.804832652134515   0.625803944596015   0.413595010000002   1.0
H138   H   0.754358330030257   0.546499597466898   0.441130020000003   1.0
H139   H   0.950295198883971   0.520546212982055   0.407717515000002   1.0
H140   H   0.613463906865441   0.218069937137180   0.354769992500003   1.0
H141   H   0.644258943877801   0.256473382168110   0.395625019999997   1.0
H142   H   0.837092306727591   0.377997190482354   0.447849990000002   1.0
H143   H   0.930441932990085   0.432011082953792   0.461345004999998   1.0
H144   H   0.917549545155566   0.743644509839982   0.554507542499998   1.0
H145   H   0.907347420852439   0.281181839423851   0.402425002500003   1.0
H146   H   0.132337401402900   0.085724050604675   0.480262517500002   1.0
H147   H   0.275022911750362   0.733198296656070   0.473272514999998   1.0
H148   H   0.066469237055969   0.012482651575510   0.504077482500001   1.0
H149   H   0.393468148417909   0.310104241641440   0.381944990000001   1.0
H150   H   0.054483283834053   0.393246661331190   0.397742510000000   1.0
H151   H   0.134396725303382   0.232788838698085   0.444364977500001   1.0
H152   H   0.203999183013885   0.651772217523551   0.497827485000002   1.0
H153   H   0.331413929810545   0.400613560016417   0.523899985000000   1.0
H154   H   0.275233133114497   0.500685140937861   0.544834995000002   1.0
H155   H   0.276262791439237   0.495329390182207   0.501452492500000   1.0
H156   H   0.224824091878801   0.367735193230104   0.399655009999996   1.0
H157   H   0.223286862655549   0.246100793475172   0.392837477500002   1.0
H158   H   0.326360097131086   0.340610351302864   0.454599999999999   1.0
H159   H   0.357785928754097   0.248340417486666   0.534262515000002   1.0
H160   H   0.482923879273308   0.211270287381716   0.529920005000001   1.0
H161   H   0.053207098323909   0.146139811361294   0.504757499999997   1.0
H162   H   0.412327989298198   0.151127130253627   0.555947494999998   1.0
H163   H   0.522811722637044   0.413969634973249   0.396982479999998   1.0
H164   H   0.553055762435008   0.710309330860341   0.484049987500001   1.0
H165   H   0.553991099584771   0.672767787427283   0.528999997500001   1.0
H166   H   0.446995067164970   0.650291506278258   0.505617522500003   1.0
H167   H   0.344313510649798   0.529644215430416   0.423422479999999   1.0
H168   H   0.348142125188332   0.494975721524803   0.381320000000002   1.0
H169   H   0.473490289820660   0.637900469088343   0.421724990000001   1.0
H170   H   0.462824158704137   0.603121391108900   0.276097487500003   1.0
H171   H   0.455043691412904   0.485384094637631   0.292439985000002   1.0
H172   H   0.637870765314240   0.987863429206605   0.030325007499997   1.0
H173   H   0.467870798378861   0.260665138119883   0.409572507500002   1.0
H174   H   0.319783413986833   0.694787403720362   0.399205019999997   1.0
H175   H   0.676584009857663   0.083779226598665   0.438632490000003   1.0
H176   H   0.485490766821293   0.783182445363579   0.362484979999998   1.0
H177   H   0.305585880096906   0.681527017027797   0.215247487500001   1.0
H178   H   0.693921145293416   0.010287295081142   0.403109979999996   1.0
H179   H   0.305237773472676   0.885854612154446   0.376097487499997   1.0
H180   H   0.305288530562528   0.807581634082688   0.342537499999999   1.0
H181   H   0.457037734444825   0.967192163619579   0.350992490000003   1.0
H182   H   0.016582283246485   0.103478286455022   0.356792497500003   1.0
H183   H   0.106110487975179   0.079661102504723   0.389300012500002   1.0
H184   H   0.068042692339354   0.988357186249054   0.360195017499997   1.0
H185   H   0.451744495074564   0.820304136186181   0.308627510000001   1.0
H186   H   0.514139489532177   0.932950822891819   0.299464989999997   1.0
H187   H   0.421971930633212   0.776515436088381   0.159964989999999   1.0
H188   H   0.599505627395047   0.091204993935811   0.405597497499997   1.0
H189   H   0.980060570320582   0.830927117396968   0.263747502500003   1.0
H190   H   0.084415450318929   0.767675134092123   0.248947479999998   1.0
H191   H   0.440723064329070   0.766702788390937   0.253144980000002   1.0
H192   H   0.517982490080179   0.869411634823642   0.243367482499998   1.0
H193   H   0.322596756210103   0.860615592977645   0.210494994999998   1.0
H194   H   0.234801485541105   0.015200996849380   0.120219994999999   1.0
H195   H   0.327433181771696   0.956576490343060   0.094090010000002   1.0
H196   H   0.305933986721136   0.085252629909689   0.094092490000001   1.0
H197   H   0.366668375972090   0.965659744319247   0.259902477499999   1.0
H198   H   0.575214799653644   0.060529431548652   0.054282497499997   1.0
H199   H   0.493140527355145   0.730258783234547   0.190722514999997   1.0
H200   H   0.058739664623836   0.262691034521637   0.386682510000000   1.0
H201   H   0.483322742987383   0.432099603254315   0.159070014999998   1.0
H202   H   0.413306890533086   0.480507212481740   0.060742497500001   1.0
H203   H   0.124535369599499   0.897376307208582   0.143137502499997   1.0
H204   H   0.434124533883143   0.577941527891916   0.221472505000001   1.0
H205   H   0.447945065862690   0.574191680957043   0.179050017500003   1.0
H206   H   0.280098606233516   0.466222912003467   0.180987502500003   1.0
H207   H   0.355233572235839   0.410249447053850   0.330940007499997   1.0
H208   H   0.292845901301185   0.312977283802020   0.315962505000002   1.0
H209   H   0.235171301697761   0.392812060248552   0.344504977500001   1.0
H210   H   0.365733038822327   0.314222218398001   0.207165002499998   1.0
H211   H   0.460083145333904   0.401306001521668   0.214612484999996   1.0
H212   H   0.326693542207366   0.436070331028944   0.036102509999999   1.0
H213   H   0.036413767097812   0.881714291683558   0.173807480000001   1.0
H214   H   0.009998341838383   0.858088624232309   0.130664992500002   1.0
H215   H   0.501566305784728   0.215476799172528   0.188847494999997   1.0
H216   H   0.581196914247379   0.307238500048257   0.194237520000001   1.0
H217   H   0.549923223375686   0.194481229268803   0.129310012499999   1.0
H218   H   0.578042665655623   0.438597152436891   0.067607500000001   1.0
H219   H   0.592095121280728   0.354688519413550   0.037805010000000   1.0
H220   H   0.658028573747238   0.454767400902384   0.034069992500001   1.0
H221   H   0.725412257784988   0.215624048154453   0.178022480000003   1.0
H222   H   0.755018172198326   0.187298546515230   0.135807489999998   1.0
H223   H   0.612144222529288   0.083241489346982   0.184565020000001   1.0
H224   H   0.347424195156428   0.652383726603581   0.358745002500001   1.0
H225   H   0.438475243098907   0.365186300681977   0.039937497499999   1.0
H226   H   0.061705278116655   0.886922786090416   0.233624982499997   1.0
H227   H   0.958684598982153   0.633310791695777   0.323802520000001   1.0
H228   H   0.630315180935106   0.537504731187582   0.491292477499996   1.0
H229   H   0.935938200719754   0.649002311532023   0.526552487499998   1.0
H230   H   0.782303653738964   0.142957353326700   0.222092484999998   1.0
H231   H   0.580268770102343   0.279244315985238   0.297030020000001   1.0
H232   H   0.460445775736844   0.266875335201760   0.296232510000003   1.0
H233   H   0.527466829371662   0.292622594685888   0.256484985000000   1.0
H234   H   0.924503375230458   0.022420639185817   0.229260015000001   1.0
H235   H   0.844437669742582   0.945747244161048   0.245090007499996   1.0
H236   H   0.967654043852150   0.060846140623191   0.279330014999999   1.0
H237   H   0.722084021140240   0.723702358033172   0.333024979999998   1.0
H238   H   0.833988945743918   0.488817085160583   0.215530014999999   1.0
H239   H   0.737151611311369   0.785215649699595   0.295932485000002   1.0
H240   H   0.789656209758689   0.194613729778553   0.280552482499999   1.0
H241   H   0.932037112307924   0.231617535959934   0.236399984999999   1.0
H242   H   0.317992406565331   0.120539940829602   0.218555022499999   1.0
H243   H   0.230204321650056   0.154523301164232   0.195487499999999   1.0
H244   H   0.220625726442719   0.039563225985624   0.222437479999996   1.0
H245   H   0.913561604111983   0.385121004584008   0.293872499999999   1.0
H246   H   0.838085731741181   0.364714747383353   0.262715007499999   1.0
H247   H   0.030750711570896   0.408356191132363   0.240420007499999   1.0
H248   H   0.074916652507852   0.648810795032965   0.365817499999999   1.0
H249   H   0.168599723846626   0.581403868021830   0.343769979999998   1.0
H250   H   0.686438034787578   0.098100479292931   0.048432495000000   1.0
H251   H   0.061429783134969   0.518969666135106   0.358202505000001   1.0
H252   H   0.675866087076777   0.838875873513622   0.326797485000000   1.0
H253   H   0.886051246910270   0.375131588859688   0.203849982500003   1.0
H254   H   0.993378991414282   0.150618897313166   0.180289985000002   1.0
H255   H   0.941862234700665   0.537475219509496   0.099880005000003   1.0
H256   H   0.099983425634861   0.116502896498275   0.160190010000001   1.0
H257   H   0.786857391314136   0.471799550965748   0.167162515000001   1.0
H258   H   0.857619931317245   0.434604235652181   0.135864997500001   1.0
H259   H   0.759898024075802   0.572858366031056   0.121550014999997   1.0
H260   H   0.000958018317917   0.155009470331386   0.136127497499999   1.0
H261   H   0.642765278739667   0.722479487210506   0.250367497500001   1.0
H262   H   0.708481179068052   0.606878538611170   0.244382477499997   1.0
H263   H   0.602514804972991   0.626341821818215   0.224940015000001   1.0
H264   H   0.891271874637994   0.200912454527817   0.310524989999998   1.0
H265   H   0.973948039009983   0.040078906830864   0.015787507500001   1.0
H266   H   0.925380769536652   0.025757794107115   0.055784987499997   1.0
H267   H   0.864943447030569   0.964341177865442   0.023845004999998   1.0
H268   H   0.782658953367921   0.547840360297663   0.062902500000000   1.0
H269   H   0.864573761392137   0.573624432027273   0.032312490000002   1.0
H270   H   0.784058427849317   0.727702597485887   0.014610005000001   1.0
H271   H   0.470430355152871   0.621678512567811   0.129152490000003   1.0
H272   H   0.962165114147474   0.567870892434470   0.182245017500001   1.0
H273   H   0.594219718798762   0.592085865221918   0.131847499999999   1.0
H274   H   0.511427661488611   0.533416111404861   0.104515005000003   1.0
H275   H   0.957314164807165   0.663588705216306   0.121344995000001   1.0
H276   H   0.825215198459354   0.728122450096350   0.086927510000002   1.0
H277   H   0.706900385759681   0.619328591790385   0.010155009999998   1.0
H278   H   0.745403271169721   0.944376969652197   0.191792487500003   1.0
H279   H   0.819414395441584   0.071542893662325   0.543489982499999   1.0
H280   H   0.165344026334289   0.661614384265945   0.433412505000000   1.0
H281   H   0.132801473475418   0.787425762033003   0.439960002500001   1.0
H282   H   0.650393329741085   0.409254904975711   0.357294990000000   1.0
H283   H   0.746904267081831   0.350710343734143   0.334997510000001   1.0
H284   H   0.914591131918492   0.054488539855136   0.477594994999997   1.0
H285   H   0.007206716398556   0.996968032369786   0.450867510000002   1.0
H286   H   0.118437209796340   0.467048001355856   0.515910005000002   1.0
H287   H   0.136963540341242   0.368913936506161   0.541865014999999   1.0
H288   H   0.315483469111932   0.087757394911208   0.505884982500000   1.0
H289   H   0.051800430837780   0.707738381905777   0.166337489999997   1.0
H290   H   0.119437900324790   0.709830469627448   0.126842500000002   1.0
H291   H   0.519012148404911   0.491918463432562   0.512997485000000   1.0
H292   H   0.639313811131764   0.527758407413714   0.320047522499998   1.0
H293   H   0.505721049127587   0.991952041622454   0.443657494999997   1.0
H294   H   0.604523364532604   0.908411833095563   0.449412490000000   1.0
H295   H   0.197117964581530   0.167901579864882   0.340317487500002   1.0
H296   H   0.155736456079659   0.084950529336808   0.313945007500003   1.0
H297   H   0.116522971411690   0.834485440465919   0.309932517500002   1.0
H298   H   0.084959319787707   0.942417389807147   0.296295024999999   1.0
H299   H   0.373491651560876   0.102675260875941   0.154685020000002   1.0
H300   H   0.453753061885187   0.038126774890593   0.129520010000000   1.0
H301   H   0.753038652945122   0.412496371632741   0.088010002499999   1.0
H302   H   0.600731121074453   0.645075703937138   0.311025000000001   1.0
H303   H   0.250833460419422   0.538690789764772   0.301020002500003   1.0
H304   H   0.433044118468558   0.066643940366255   0.495527507500000   1.0
H305   H   0.052307994485282   0.681976373949475   0.303009987499998   1.0
H306   H   0.720140735198171   0.986375410027051   0.557182502499998   1.0
H307   H   0.274225184322198   0.400554544027116   0.091604997499999   1.0
H308   H   0.765677117561133   0.320771475635617   0.056690002499998   1.0
H309   H   0.736078526670759   0.935927148558825   0.083404995000002   1.0
H310   H   0.617386704809704   0.912677206171423   0.087614989999999   1.0
H311   H   0.479907508690630   0.103308833729273   0.265679980000002   1.0
H312   H   0.567485234472521   0.106822749310581   0.298002484999998   1.0
H313   H   0.889219881511487   0.793135041475544   0.332534979999998   1.0
H314   H   0.829942916836508   0.878863313296286   0.357189990000002   1.0
H315   H   0.227543250696343   0.262278489845443   0.244497490000001   1.0
H316   H   0.175161883212169   0.434036986722411   0.291157484999999   1.0
H317   H   0.304831716753860   0.285985089721912   0.079437495000000   1.0
H318   H   0.827528300558079   0.039194948826555   0.174357510000000   1.0
H319   H   0.127326995039318   0.290338850494649   0.139422490000001   1.0
H320   H   0.126485841295285   0.280695662889826   0.183319997500000   1.0
H321   H   0.744467934019958   0.782386867689276   0.208612490000000   1.0
H322   H   0.643715132417128   0.734480043497534   0.188502502500000   1.0
H323   H   0.061814057811226   0.909818912483026   0.052887512500000   1.0
H324   H   0.006793401415898   0.852681445362649   0.015457512499999   1.0
H325   H   0.564476056894577   0.751453317542108   0.103329992500001   1.0
H326   H   0.489333767369296   0.683737129361205   0.077519989999999   1.0
H327   H   0.216528947696474   0.164556977038807   0.271852494999997   1.0
O328   O   0.623571847762840   0.613921272950208   0.382712507500003   1.0
O329   O   0.560060211830510   0.357863662147011   0.457924984999998   1.0
O330   O   0.316600117837659   0.104141223649059   0.436347484999999   1.0
O331   O   0.141031416550327   0.471121857932665   0.453472519999998   1.0
O332   O   0.092964452460649   0.467747890765892   0.151184987500002   1.0
O333   O   0.829021965696214   0.532355252770024   0.357172490000004   1.0
O334   O   0.974513552752079   0.722155322864317   0.415794992499997   1.0
O335   O   0.415257499998113   0.826146056108996   0.435884999999999   1.0
O336   O   0.935466870383387   0.815957543377195   0.056542492500000   1.0
O337   O   0.892171116245862   0.237768864389892   0.476692485000001   1.0
O338   O   0.359228836802380   0.096148207382143   0.314312507499999   1.0
O339   O   0.638073793673648   0.409586369889297   0.132215000000002   1.0
O340   O   0.281440000102094   0.754223223533636   0.280152512500003   1.0
O341   O   0.265908388615536   0.615512428298814   0.142492509999997   1.0
O342   O   0.193035637103861   0.539442247259331   0.232259990000003   1.0
O343   O   0.302511421650401   0.280194737883626   0.149099995000000   1.0
O344   O   0.632766037775689   0.914909382278147   0.149569990000003   1.0
O345   O   0.651676773515078   0.977240447995818   0.257550002499997   1.0
O346   O   0.784362970388429   0.053140469090110   0.327322482500001   1.0
O347   O   0.077664786372694   0.266352353789124   0.298417520000001   1.0
O348   O   0.923698462048577   0.612970851051820   0.259994984999999   1.0
O349   O   0.820016280264056   0.758127767355212   0.148955014999998   1.0
O350   O   0.026537887615220   0.682558371351412   0.052682494999999   1.0
O351   O   0.696429944977574   0.825239754390346   0.522550010000003   1.0
O352   O   0.531259210599053   0.900197788651504   0.403327512499999   1.0
O353   O   0.370192455222529   0.951228054888539   0.160987519999999   1.0
O354   O   0.470510159800142   0.010221118494954   0.202045012500001   1.0
O355   O   0.510992564463386   0.570825014357659   0.341817522500001   1.0
O356   O   0.505982158099805   0.517540522974343   0.463135004999998   1.0
O357   O   0.385890847255325   0.196403996868376   0.477314997500002   1.0
O358   O   0.753683971334482   0.644648410788768   0.183605002500002   1.0
O359   O   0.977907070265388   0.142323787840240   0.440345002500003   1.0
O360   O   0.772746840574186   0.389239121311078   0.383510017500001   1.0
O361   O   0.245707016097420   0.022074278462675   0.348225024999998   1.0
O362   O   0.044237653453912   0.679280092448906   0.465042497500001   1.0
O363   O   0.158303271117518   0.342687823156005   0.490587519999998   1.0
O364   O   0.617270666851290   0.789517982358319   0.038602494999999   1.0
O365   O   0.203875886791621   0.903917976570909   0.275562477500003   1.0
O366   O   0.193506967440229   0.740867148576804   0.170725012500000   1.0
O367   O   0.302736159542235   0.449654734730309   0.263332509999998   1.0
O368   O   0.401901112601209   0.360935543474646   0.113210010000003   1.0
O369   O   0.673582025284453   0.286817487008563   0.094567490000003   1.0
O370   O   0.622629187090112   0.138964421808247   0.250197505000003   1.0
O371   O   0.868213740831749   0.916316469032473   0.309742497499997   1.0
O372   O   0.095379003479962   0.202975170541919   0.244640017499997   1.0
O373   O   0.025798320561016   0.530845029846652   0.292077495000001   1.0
O374   O   0.008787437196801   0.334731619134573   0.166335009999997   1.0
O375   O   0.819030048255200   0.940332477416092   0.518655015000000   1.0
O376   O   0.660624501601632   0.036056618338577   0.112420010000001   1.0
O377   O   0.630518209294507   0.654188609561928   0.070732499999998   1.0


# Number_of_total_atoms: 377
# Number_of_atom_type: 3
# Name_of_each_atom: C H O
# Number_of_each_atom: 125 202 50
# Created_by: Lihua Chen (lihua.chen@mse.gatech.edu)
# Tool: VASP
# K-points: 1 1 1
# Pseudopotential: PBE-HSE06
# Material_class: MC_Pol
# Geometry_class: GC_PD
# Bandgap_(eV): 5.46
