#======================================================================

# Note: Disordered slab of isotactic polyethyl acrylate
# Common_name: Disordered slab-3

#----------------------------------------------------------------------

data_1
_audit_creation_method   'vasp2cif'
_cell_length_a    12.5899544
_cell_length_b    14.3899078
_cell_length_c    40.0
_cell_angle_alpha    90.0
_cell_angle_beta    90.0
_cell_angle_gamma    90.0

_symmetry_space_group_name_H-M    'P 1'
loop_
_atom_site_label
_atom_site_type_symbol
_atom_site_fract_x
_atom_site_fract_y
_atom_site_fract_z
_atom_site_occupancy
C1   C   0.744520401122344   0.890537637774166   0.467017507500003   1.0
C2   C   0.306091481951675   0.848153669198631   0.363122512499999   1.0
C3   C   0.892781470280781   0.676957360352233   0.426697492499997   1.0
C4   C   0.795839022260481   0.418171831510968   0.383190012500002   1.0
C5   C   0.874163317064912   0.240978145808548   0.475719977499999   1.0
C6   C   0.077941314862905   0.454759897766685   0.463367509999998   1.0
C7   C   0.314328112260675   0.269498168709603   0.487057495000002   1.0
C8   C   0.473645623370963   0.516629696543298   0.472892524999999   1.0
C9   C   0.399189515730100   0.826388547117723   0.418822480000003   1.0
C10   C   0.300269276590868   0.008377677027227   0.331370020000001   1.0
C11   C   0.270658446546875   0.801322194712050   0.275457477499998   1.0
C12   C   0.417529518613662   0.937292503013815   0.188732482500001   1.0
C13   C   0.311937317263037   0.680230494597055   0.151832485000000   1.0
C14   C   0.334089915369354   0.475823312780363   0.225887489999998   1.0
C15   C   0.697077703474449   0.311082868786691   0.103605007500001   1.0
C16   C   0.797689719988185   0.634149504418644   0.444005012500000   1.0
C17   C   0.695147624998548   0.018752976304682   0.133874990000002   1.0
C18   C   0.690787061150914   0.060143109464541   0.240535022499998   1.0
C19   C   0.883265899676331   0.001810602288920   0.300139999999999   1.0
C20   C   0.075050057369552   0.244661247933777   0.274332524999998   1.0
C21   C   0.986371872800426   0.523002190465739   0.279982519999997   1.0
C22   C   0.002166568609653   0.482154180306843   0.185725022500002   1.0
C23   C   0.782614192788500   0.697430007160989   0.167469980000000   1.0
C24   C   0.942741921289247   0.637228050898280   0.063015007499999   1.0
C25   C   0.595210829357733   0.688868499907969   0.042459989999998   1.0
C26   C   0.745727689053425   0.787708486916088   0.479960012500001   1.0
C27   C   0.693964117931991   0.772885681727580   0.514949989999998   1.0
C28   C   0.832042576738800   0.984645148317071   0.426954985000002   1.0
C29   C   0.426258668577866   0.328741001384316   0.133472490000003   1.0
C30   C   0.718610823562635   0.709612197793234   0.451947497500001   1.0
C31   C   0.490182649112690   0.572967757305577   0.369417477500001   1.0
C32   C   0.092849962983188   0.839995090170071   0.456527520000002   1.0
C33   C   0.751359162984734   0.557039899866488   0.421775009999998   1.0
C34   C   0.985577572862375   0.133103966100464   0.533337497500000   1.0
C35   C   0.168799451727956   0.608298067066144   0.507492495000001   1.0
C36   C   0.054779968067237   0.565504262647188   0.507282494999998   1.0
C37   C   0.009100692215377   0.321159410069328   0.432507514999998   1.0
C38   C   0.098870628157322   0.355197112520763   0.455097485000003   1.0
C39   C   0.894918038781775   0.309380293597158   0.446455004999997   1.0
C40   C   0.827229191552910   0.467873234045321   0.416662502500003   1.0
C41   C   0.921645713029747   0.098906401610165   0.503620005000002   1.0
C42   C   0.828404660464855   0.404877701857132   0.449397519999998   1.0
C43   C   0.589968554612078   0.249247795736395   0.364984990000004   1.0
C44   C   0.692693358762284   0.303403855026787   0.358732510000003   1.0
C45   C   0.309824537569412   0.353807221753009   0.464569997500000   1.0
C46   C   0.767419578580842   0.016953110707213   0.398054979999998   1.0
C47   C   0.710898222157184   0.600264756387112   0.324772500000002   1.0
C48   C   0.471461326341263   0.239011538350511   0.565635014999998   1.0
C49   C   0.449483558097718   0.465851087662983   0.438859987500002   1.0
C50   C   0.412954442472007   0.363765659429731   0.445860005000000   1.0
C51   C   0.592724752045171   0.511160516261263   0.519167519999996   1.0
C52   C   0.670556670165539   0.446962780400860   0.536152507499999   1.0
C53   C   0.431350045239242   0.606428750016036   0.399962520000002   1.0
C54   C   0.374225128249868   0.528283683652234   0.418209982500002   1.0
C55   C   0.591978021779013   0.630132911622965   0.322082520000002   1.0
C56   C   0.378712793431561   0.783518126502521   0.384667492500000   1.0
C57   C   0.344566585562852   0.681898337110958   0.388374997500001   1.0
C58   C   0.436306290354793   0.969037133094069   0.448729995000001   1.0
C59   C   0.057814085490257   0.764094860983057   0.432840014999997   1.0
C60   C   0.464979952588230   0.071116063717937   0.441917515000000   1.0
C61   C   0.394217218133846   0.205536619213085   0.538835002500001   1.0
C62   C   0.357584925009739   0.919064547446233   0.337752485000003   1.0
C63   C   0.212596290261388   0.341152498558749   0.440442515000001   1.0
C64   C   0.138441899360650   0.097676358982646   0.344280005000002   1.0
C65   C   0.879175312978099   0.983074728248084   0.066505002500001   1.0
C66   C   0.363899348197798   0.871718788913988   0.270947505000002   1.0
C67   C   0.421620113254740   0.886458348259879   0.305757522500002   1.0
C68   C   0.109577577183280   0.758709044681993   0.250314997499999   1.0
C69   C   0.043969770057309   0.790814872351021   0.220117522499997   1.0
C70   C   0.403462660674926   0.841364313675449   0.205840015000000   1.0
C71   C   0.440238115556639   0.832642944383565   0.243477487500002   1.0
C72   C   0.368752423757783   0.035403479096651   0.143122507500003   1.0
C73   C   0.305646682882347   0.018419353597245   0.111817502500003   1.0
C74   C   0.383049560528988   0.671175502597727   0.184224987500002   1.0
C75   C   0.453248432734597   0.757103766849710   0.184980012499999   1.0
C76   C   0.158291041943727   0.758382454681190   0.128752495000000   1.0
C77   C   0.086718098041722   0.842510846386382   0.135684992500003   1.0
C78   C   0.791899325703675   0.087565091973694   0.221369985000003   1.0
C79   C   0.396711317715337   0.483120065578184   0.192392492499998   1.0
C80   C   0.331834108946417   0.510319767302470   0.283220004999997   1.0
C81   C   0.349475261006504   0.414092548946002   0.299907494999999   1.0
C82   C   0.514463936422203   0.364884492171662   0.156759977500002   1.0
C83   C   0.471405726457597   0.398116053252267   0.190905000000001   1.0
C84   C   0.385313389220855   0.306051488391049   0.073554995000002   1.0
C85   C   0.445670970817815   0.244070618715149   0.049937509999999   1.0
C86   C   0.599134616404967   0.290471173137050   0.162642480000002   1.0
C87   C   0.786013792075373   0.278963121640018   0.052367497500001   1.0
C88   C   0.755020709209241   0.222645874075717   0.020677495000001   1.0
C89   C   0.715028507172356   0.091553984800378   0.160785007500003   1.0
C90   C   0.757626016500900   0.191776982754540   0.148405005000001   1.0
C91   C   0.771970873857967   0.959217737308919   0.084302497499998   1.0
C92   C   0.068362185648581   0.259769162662735   0.143457507500003   1.0
C93   C   0.450682966731001   0.577172169233776   0.186654997500000   1.0
C94   C   0.790660226696296   0.047043685714236   0.186745025000001   1.0
C95   C   0.662248387492177   0.248108149796486   0.133447504999999   1.0
C96   C   0.457426430392793   0.824984604835343   0.086074997499999   1.0
C97   C   0.897785435982200   0.516921567767099   0.200487517500001   1.0
C98   C   0.545996957701448   0.133465288776904   0.270865012500003   1.0
C99   C   0.515107346218826   0.236912775771920   0.278800009999998   1.0
C100   C   0.913170630705380   0.079795813563173   0.275022507499998   1.0
C101   C   0.894933948291346   0.053346721234725   0.239790010000000   1.0
C102   C   0.005645556587559   0.827521299337306   0.332404994999997   1.0
C103   C   0.956347919735116   0.254501588953893   0.272232485000004   1.0
C104   C   0.887840975817987   0.177211323063517   0.287160014999998   1.0
C105   C   0.229172934891643   0.183090339188972   0.245459987499999   1.0
C106   C   0.242381862796897   0.092825778911525   0.230807495000001   1.0
C107   C   0.951741175488294   0.434370614938892   0.260427522500002   1.0
C108   C   0.915672617527513   0.355009425425230   0.282070017499997   1.0
C109   C   0.070776825053471   0.562342338287948   0.333655024999999   1.0
C110   C   0.149951107050875   0.522481012699750   0.360109997499997   1.0
C111   C   0.906133258115695   0.838070234195662   0.313762522499999   1.0
C112   C   0.057949145550516   0.117203947616673   0.372757485000001   1.0
C113   C   0.866093494349748   0.449214365362366   0.231134987499999   1.0
C114   C   0.698658431995590   0.632446929229111   0.038767505000003   1.0
C115   C   0.151372827847574   0.455545239838159   0.054034995000002   1.0
C116   C   0.877094336417933   0.595844950445063   0.120639992500003   1.0
C117   C   0.847888472098042   0.636540131271722   0.085917497499999   1.0
C118   C   0.481064307905676   0.724539319146992   0.086162495000004   1.0
C119   C   0.090768986423015   0.546782836231934   0.044094992500000   1.0
C120   C   0.758015207743725   0.778042052500155   0.219189977500001   1.0
C121   C   0.800612717072269   0.522592222585331   0.174107505000002   1.0
C122   C   0.793114643846529   0.603364116064732   0.149657515000001   1.0
C123   C   0.083247132332744   0.359922702214952   0.154974985000003   1.0
C124   C   0.718102394397867   0.749688917395289   0.253665017499998   1.0
C125   C   0.746649098268378   0.587352887695360   0.070295000000002   1.0
H126   H   0.829461050311664   0.783469613335534   0.488122512499999   1.0
H127   H   0.715243027409215   0.533676386724309   0.335295010000003   1.0
H128   H   0.796490311354901   0.082589389488653   0.389314984999999   1.0
H129   H   0.686910843775571   0.037050522311198   0.403434992500003   1.0
H130   H   0.766609369133221   0.959315027716855   0.381454992499997   1.0
H131   H   0.702256506981470   0.747068977050709   0.430165004999999   1.0
H132   H   0.603789081237657   0.762864818355546   0.514130020000003   1.0
H133   H   0.643995795568571   0.668736355628354   0.459357500000003   1.0
H134   H   0.824758864893106   0.606595498825918   0.466970015000001   1.0
H135   H   0.166623113424464   0.871315839841586   0.445712520000001   1.0
H136   H   0.576807196378724   0.200331610185856   0.345892477500001   1.0
H137   H   0.735830798561111   0.588311872297055   0.397244979999996   1.0
H138   H   0.670199139085049   0.540417229080511   0.431067515000002   1.0
H139   H   0.905879198418702   0.492029115016287   0.408925009999997   1.0
H140   H   0.522374989698136   0.299255107110554   0.370300007499999   1.0
H141   H   0.605012270735472   0.203111405619985   0.385634994999997   1.0
H142   H   0.741883282754387   0.394224450833519   0.457200002500002   1.0
H143   H   0.866784473818271   0.450249827174012   0.466634990000003   1.0
H144   H   0.716307296553829   0.823025023134619   0.532352494999998   1.0
H145   H   0.849500860781511   0.273869315549057   0.427032517500002   1.0
H146   H   0.989342439556417   0.080963291509065   0.553759957499999   1.0
H147   H   0.100713375101663   0.815359782916744   0.481909989999998   1.0
H148   H   0.950907193118987   0.187107064021632   0.547102500000001   1.0
H149   H   0.409475454494100   0.323355324069553   0.422669984999999   1.0
H150   H   0.003826606393425   0.373154142099509   0.411472512499998   1.0
H151   H   0.095050161579614   0.318817421470904   0.478604984999997   1.0
H152   H   0.044247769475639   0.899842749513653   0.454524995000000   1.0
H153   H   0.198322934354714   0.622071629951655   0.482577515000003   1.0
H154   H   0.224089509013631   0.554169846731057   0.519680025000000   1.0
H155   H   0.172802627466225   0.670974028061529   0.521309995000003   1.0
H156   H   0.219760692699573   0.382070092207265   0.418392515000001   1.0
H157   H   0.217957644072165   0.272924125337340   0.428662490000001   1.0
H158   H   0.297870610238270   0.413536645453696   0.478735017500000   1.0
H159   H   0.454010913653505   0.304849284718834   0.578785037499998   1.0
H160   H   0.554638847619657   0.245592525617155   0.557597542499998   1.0
H161   H   0.070617984128681   0.143521016861555   0.530240012500002   1.0
H162   H   0.481683777980962   0.188170364788576   0.586320020000002   1.0
H163   H   0.518022313091144   0.457004589007859   0.425187492500001   1.0
H164   H   0.724575888853103   0.485642708565514   0.554257487500003   1.0
H165   H   0.731454341089588   0.420020342312405   0.517467500000002   1.0
H166   H   0.637554120132478   0.382431421833019   0.547335005000001   1.0
H167   H   0.307529040772380   0.557985097027512   0.431920005000002   1.0
H168   H   0.327727771595427   0.485614869610217   0.398962500000003   1.0
H169   H   0.487648851214267   0.648791780305913   0.415710019999999   1.0
H170   H   0.763281271296741   0.636039766703718   0.339944982500000   1.0
H171   H   0.751994542569591   0.597728186972816   0.301202487499999   1.0
H172   H   0.943599700408761   0.978057267330094   0.083590007500000   1.0
H173   H   0.483415396643537   0.333390113868553   0.459357500000003   1.0
H174   H   0.273938831740331   0.687172811489454   0.403735017499997   1.0
H175   H   0.536958005185468   0.081769314741543   0.426364995000000   1.0
H176   H   0.459713896978052   0.782114316257122   0.374100020000000   1.0
H177   H   0.326194763660148   0.664469385967848   0.205410004999997   1.0
H178   H   0.412867031512043   0.125953148914547   0.433442497500003   1.0
H179   H   0.255638519230857   0.882400003980564   0.381572485000000   1.0
H180   H   0.250920424302727   0.802670466033149   0.350037479999998   1.0
H181   H   0.417592997795133   0.949752777429190   0.352820014999999   1.0
H182   H   0.999450140979064   0.061199377524851   0.373050024999998   1.0
H183   H   0.006987904578906   0.178635814469914   0.367097522500003   1.0
H184   H   0.087536258272706   0.122395044115571   0.399042510000001   1.0
H185   H   0.460706807643405   0.822788815922785   0.313439989999999   1.0
H186   H   0.484392254828180   0.935173066223534   0.302734995000002   1.0
H187   H   0.472954643902440   0.784435352671267   0.159725000000002   1.0
H188   H   0.492636907406116   0.094368499011509   0.466375017499999   1.0
H189   H   0.978095409146199   0.745922305353481   0.213277482499997   1.0
H190   H   0.090220946312563   0.802350762803357   0.198527480000003   1.0
H191   H   0.445107092683351   0.762148927736703   0.247422505000003   1.0
H192   H   0.517887332459281   0.870822501030894   0.244932509999998   1.0
H193   H   0.319665669321246   0.829981120518369   0.206117487500002   1.0
H194   H   0.287584679417108   0.085299587534536   0.098165014999999   1.0
H195   H   0.231142854655616   0.986605001041077   0.120332505000000   1.0
H196   H   0.345980355576188   0.978362919045246   0.093284990000001   1.0
H197   H   0.328037431176078   0.935075775815605   0.262562514999999   1.0
H198   H   0.905188068036210   0.927215961731179   0.049442505000002   1.0
H199   H   0.527927082881256   0.737041080972041   0.196152499999997   1.0
H200   H   0.024771916568660   0.251958125819265   0.423705005000002   1.0
H201   H   0.545901675386531   0.426142723443995   0.143545007500002   1.0
H202   H   0.456941790035394   0.170880448587724   0.061747505000000   1.0
H203   H   0.018528843917018   0.822392496496747   0.149782490000000   1.0
H204   H   0.496632203846588   0.587443152345976   0.209499979999997   1.0
H205   H   0.499062681275475   0.573621083242799   0.164375020000001   1.0
H206   H   0.336639614834503   0.469735657375097   0.173764994999999   1.0
H207   H   0.433446931308978   0.409005636575380   0.303004979999997   1.0
H208   H   0.311770517612040   0.361277742168717   0.284044982499999   1.0
H209   H   0.322596696617104   0.403307281788145   0.325365020000000   1.0
H210   H   0.436735338771364   0.333292823460617   0.203227519999999   1.0
H211   H   0.540524412066176   0.408762410555539   0.205264997500002   1.0
H212   H   0.525965185386212   0.270762930114117   0.041952492500002   1.0
H213   H   0.058568695054213   0.876208178345657   0.114135002499999   1.0
H214   H   0.121984325852679   0.894463965919229   0.152759982500001   1.0
H215   H   0.564670559887013   0.236565365623818   0.177142477499999   1.0
H216   H   0.656251503182567   0.316114110196040   0.180935002500000   1.0
H217   H   0.598403787705536   0.203952286615760   0.122567510000003   1.0
H218   H   0.742216882056383   0.151721208387450   0.027322507500003   1.0
H219   H   0.807379961598592   0.225891169365241   0.999887254999997   1.0
H220   H   0.680143599249256   0.246426387804931   0.014229989999997   1.0
H221   H   0.782002594068175   0.234049748393801   0.170284987499997   1.0
H222   H   0.827920171021432   0.185161262812258   0.132837510000002   1.0
H223   H   0.637546240834673   0.098795198673891   0.169540025000003   1.0
H224   H   0.322024788270880   0.660862761052577   0.363044977500003   1.0
H225   H   0.403017861605598   0.237163027549073   0.026652502499999   1.0
H226   H   0.015836205093798   0.860071820613058   0.222742510000003   1.0
H227   H   0.006125804554145   0.587067910191891   0.348645019999999   1.0
H228   H   0.557665006316462   0.555990650614177   0.536159992500004   1.0
H229   H   0.719333614107448   0.712739396426151   0.526884985000002   1.0
H230   H   0.789278267759251   0.162958201858665   0.217707492499997   1.0
H231   H   0.479007120152872   0.274494684392629   0.260050010000000   1.0
H232   H   0.592240262601749   0.269887316442706   0.285452509999999   1.0
H233   H   0.466957751650000   0.232270689044995   0.300775002500004   1.0
H234   H   0.964934201826814   0.074194617146887   0.225227500000003   1.0
H235   H   0.890755942690312   0.977480418602823   0.236217500000002   1.0
H236   H   0.994287246981607   0.063145185683538   0.278802489999997   1.0
H237   H   0.006098314383095   0.756130862770362   0.340762519999998   1.0
H238   H   0.799016229955527   0.494600410156899   0.240530014999997   1.0
H239   H   0.004493797054579   0.876242904071979   0.353522492499998   1.0
H240   H   0.801589726170889   0.188823558688817   0.284107495000001   1.0
H241   H   0.945426601386259   0.249831531234690   0.244957495000001   1.0
H242   H   0.325305165521492   0.079920803940105   0.232082509999998   1.0
H243   H   0.212953670427908   0.094820225324860   0.203422500000002   1.0
H244   H   0.211198342386368   0.038287451709735   0.246372510000000   1.0
H245   H   0.938333636855745   0.366044951309554   0.308512497499997   1.0
H246   H   0.829802679825434   0.364467498533941   0.284514999999999   1.0
H247   H   0.024120627474232   0.408359336395471   0.251044987500002   1.0
H248   H   0.168767632708821   0.576213052595094   0.378249980000000   1.0
H249   H   0.224995008719013   0.508422611297064   0.349692490000003   1.0
H250   H   0.873813959167322   0.043290993150073   0.050932502499997   1.0
H251   H   0.115034372165795   0.461716259224396   0.371054985000001   1.0
H252   H   0.070443241637157   0.838918008911776   0.317080022500001   1.0
H253   H   0.829993268283800   0.383327973790074   0.225029992499998   1.0
H254   H   0.992297255659636   0.251193728982756   0.129892492499998   1.0
H255   H   0.893416849865638   0.521341366759835   0.118182492499997   1.0
H256   H   0.052103230810751   0.210887570801532   0.165334987500003   1.0
H257   H   0.723233469376190   0.508763127724833   0.186397505000002   1.0
H258   H   0.798452208849938   0.459033761147516   0.160557509999997   1.0
H259   H   0.709770481773944   0.603009680159310   0.139400004999999   1.0
H260   H   0.129530048178729   0.229477120068829   0.128364992500003   1.0
H261   H   0.777673698325707   0.710640640796882   0.267579984999998   1.0
H262   H   0.651771717298672   0.709306414041095   0.252012492500001   1.0
H263   H   0.706966563754989   0.808507869661263   0.266302490000001   1.0
H264   H   0.900009423385995   0.177093087420616   0.313852502499998   1.0
H265   H   0.094692701984684   0.393758811991830   0.052804995000002   1.0
H266   H   0.179903550722948   0.466816959035690   0.080217505000000   1.0
H267   H   0.221976721377168   0.434870986456218   0.038170004999998   1.0
H268   H   0.689126951881576   0.568930219274925   0.089447499999999   1.0
H269   H   0.771351244925874   0.517289916200852   0.061072492500003   1.0
H270   H   0.761970813810095   0.680939359458577   0.028177499999998   1.0
H271   H   0.498665610734854   0.863838300617878   0.105507492500003   1.0
H272   H   0.912908540796622   0.584635663892165   0.210620022500002   1.0
H273   H   0.372938308656622   0.830634578492571   0.096347500000000   1.0
H274   H   0.453693223861080   0.855429740835447   0.061932492499999   1.0
H275   H   0.951272452583311   0.617860331252437   0.131474994999998   1.0
H276   H   0.821192616869205   0.706186109128510   0.091599989999999   1.0
H277   H   0.680238889507017   0.573829444550022   0.022840000000002   1.0
H278   H   0.786259988360243   0.968606094891030   0.183082485000000   1.0
H279   H   0.910541542549190   0.989141431469072   0.415947484999997   1.0
H280   H   0.122516535881971   0.714553181501273   0.430579997499997   1.0
H281   H   0.047401045392192   0.791829395877016   0.408244992500002   1.0
H282   H   0.684639286699877   0.341319379405611   0.336997510000003   1.0
H283   H   0.760930174616043   0.259400814228982   0.355950022499997   1.0
H284   H   0.837816910599770   0.094827119045199   0.512252522499999   1.0
H285   H   0.949254955204601   0.028989365727554   0.496624994999998   1.0
H286   H   0.002587578871612   0.607116669642593   0.492215014999999   1.0
H287   H   0.028393843904631   0.565768294915692   0.533080005000002   1.0
H288   H   0.309975419768001   0.195898023752456   0.549717524999998   1.0
H289   H   0.121428327016019   0.691078326436532   0.127062512499997   1.0
H290   H   0.188362644109340   0.767562437057450   0.103189992499999   1.0
H291   H   0.641033108110385   0.562738386690704   0.506217479999997   1.0
H292   H   0.581326672636720   0.692822660059015   0.308412505000000   1.0
H293   H   0.360214021108767   0.971643028873331   0.459202480000002   1.0
H294   H   0.492621156753358   0.944506009969011   0.469592525000003   1.0
H295   H   0.191968669878584   0.158364767285029   0.344945002499998   1.0
H296   H   0.093803111788873   0.098649263061993   0.319682502500001   1.0
H297   H   0.143167865643740   0.688805928277041   0.247825005000003   1.0
H298   H   0.058838735746335   0.752364389714856   0.272590020000003   1.0
H299   H   0.336925493550638   0.089337125565180   0.161807490000001   1.0
H300   H   0.444630482537725   0.059462076608995   0.133030009999999   1.0
H301   H   0.786124991842705   0.352014381912859   0.044547510000001   1.0
H302   H   0.548260635479345   0.582578652797203   0.307247494999999   1.0
H303   H   0.365257677184282   0.560855150162951   0.300432492500001   1.0
H304   H   0.424193601527264   0.139594556679505   0.531092500000000   1.0
H305   H   0.100538696152860   0.627408655113136   0.324329994999999   1.0
H306   H   0.844862305458392   0.040483504696255   0.445174979999997   1.0
H307   H   0.370349061788502   0.366593961081527   0.057697509999997   1.0
H308   H   0.869993349618490   0.272604554144536   0.058072494999998   1.0
H309   H   0.765147870591179   0.891044764025523   0.089067507499998   1.0
H310   H   0.713741838493078   0.983804267321297   0.066564990000003   1.0
H311   H   0.474130104871548   0.087565091973694   0.271312524999999   1.0
H312   H   0.594805720662499   0.109163604231014   0.292010022500001   1.0
H313   H   0.838436531589025   0.840509381165042   0.330827522500002   1.0
H314   H   0.887221354828732   0.777500061536180   0.299800015000002   1.0
H315   H   0.260674296008567   0.235995542653860   0.228579997499999   1.0
H316   H   0.255868790120481   0.540132251577042   0.277972507500003   1.0
H317   H   0.303851585038309   0.287170206886245   0.080697489999999   1.0
H318   H   0.869580369568297   0.062012433463956   0.177582502500002   1.0
H319   H   0.109085136956494   0.405843712216139   0.133642507499999   1.0
H320   H   0.148854931515878   0.363049768810889   0.171892499999998   1.0
H321   H   0.834655755385420   0.812295281002427   0.218427515000002   1.0
H322   H   0.701216010758543   0.822934626447015   0.205555009999998   1.0
H323   H   0.063604479774767   0.536622924019014   0.019522500000001   1.0
H324   H   0.152135324652171   0.602293928526770   0.048315000000002   1.0
H325   H   0.412318911973180   0.683385393198975   0.075422502499997   1.0
H326   H   0.489833140301130   0.706950644951320   0.112042500000001   1.0
H327   H   0.273692643398299   0.179817204944150   0.268685007499997   1.0
O328   O   0.495917443513534   0.492286260513772   0.359872484999997   1.0
O329   O   0.450198326373602   0.597262548131127   0.477589989999999   1.0
O330   O   0.246583649262462   0.207920234207478   0.486294985000001   1.0
O331   O   0.085677609761639   0.516275267587190   0.441830015000001   1.0
O332   O   0.079974626437092   0.532800780002219   0.183589982500003   1.0
O333   O   0.854075936923174   0.428581863464061   0.358767510000000   1.0
O334   O   0.898706694283185   0.674511194574855   0.395692492499997   1.0
O335   O   0.381635790515652   0.783198423272729   0.445997480000003   1.0
O336   O   0.000645228707100   0.559757123669691   0.065067507499997   1.0
O337   O   0.806895472155162   0.263486990514281   0.496135000000002   1.0
O338   O   0.338108992674350   0.071852628548463   0.313222504999999   1.0
O339   O   0.720969791598293   0.392994408206008   0.105730010000002   1.0
O340   O   0.283772084194361   0.727867992316114   0.291909982500002   1.0
O341   O   0.321587868499350   0.618332856865145   0.129150009999997   1.0
O342   O   0.241524083677383   0.445308850415287   0.227419997500000   1.0
O343   O   0.336449034318981   0.311937669260118   0.144100000000002   1.0
O344   O   0.608300678197850   0.982073992162753   0.128414987500001   1.0
O345   O   0.680429620936515   0.979078677627108   0.249617479999998   1.0
O346   O   0.852797147541693   0.022887797793949   0.328499985000000   1.0
O347   O   0.123890623464057   0.280915816569724   0.296479990000002   1.0
O348   O   0.959413927662837   0.603732464498485   0.272844984999999   1.0
O349   O   0.789373565959856   0.770814758104287   0.150387477499997   1.0
O350   O   0.955466351808234   0.691134004347127   0.040747500000002   1.0
O351   O   0.706529786954590   0.953380340630119   0.482789992500002   1.0
O352   O   0.423168871842776   0.918334737349738   0.417974997499996   1.0
O353   O   0.372056740729739   0.943769313101505   0.156637477499999   1.0
O354   O   0.463113504207769   0.000663270406775   0.203912497499999   1.0
O355   O   0.545822294638334   0.639931362173151   0.354292487499997   1.0
O356   O   0.529134362869499   0.464982367711904   0.494607497499999   1.0
O357   O   0.392541342326069   0.270227832870482   0.511187507499997   1.0
O358   O   0.763511701043171   0.695505019149600   0.200602484999997   1.0
O359   O   0.933631451437186   0.161623982052198   0.476994992500003   1.0
O360   O   0.712963440121754   0.361243009493087   0.385967492500001   1.0
O361   O   0.200634340661310   0.013624444487405   0.345612480000000   1.0
O362   O   0.960732407418412   0.726290539540500   0.445732499999998   1.0
O363   O   0.053779170161249   0.467769049917052   0.496285010000001   1.0
O364   O   0.545401276433537   0.717068798731290   0.017532492500003   1.0
O365   O   0.187957543356951   0.825221062222511   0.257410002500002   1.0
O366   O   0.244947479714462   0.752281018784565   0.154117489999997   1.0
O367   O   0.386552345257101   0.517095335384987   0.251507519999997   1.0
O368   O   0.454281033774038   0.328157258936713   0.100012492499999   1.0
O369   O   0.710715679796266   0.259032465795229   0.076202512499997   1.0
O370   O   0.622272094964856   0.129601525313454   0.246002484999998   1.0
O371   O   0.908285894983067   0.912302759855066   0.290325022499999   1.0
O372   O   0.115328201665292   0.188323187171498   0.249437524999998   1.0
O373   O   0.050292223457142   0.500055538924300   0.306855012500002   1.0
O374   O   0.988857950112987   0.396253622973177   0.170177507500000   1.0
O375   O   0.809778778865159   0.899870588468957   0.440982484999999   1.0
O376   O   0.775974049596243   0.015660510347395   0.113450002500002   1.0
O377   O   0.579372805353451   0.709737195119487   0.073685005000001   1.0


# Number_of_total_atoms: 377
# Number_of_atom_type: 3
# Name_of_each_atom: C H O
# Number_of_each_atom: 125 202 50
# Created_by: Lihua Chen (lihua.chen@mse.gatech.edu)
# Tool: VASP
# K-points: 1 1 1
# Pseudopotential: PBE-HSE06
# Material_class: MC_Pol
# Geometry_class: GC_PD
# Bandgap_(eV): 5.66
