#======================================================================

# Note: Disordered slab of isotactic polyethyl acrylate
# Common_name: Disordered slab-4

#----------------------------------------------------------------------

data_1
_audit_creation_method   'vasp2cif'
_cell_length_a    12.8191309
_cell_length_b    14.6346302
_cell_length_c    40.0
_cell_angle_alpha    90.0
_cell_angle_beta    90.0
_cell_angle_gamma    90.0

_symmetry_space_group_name_H-M    'P 1'
loop_
_atom_site_label
_atom_site_type_symbol
_atom_site_fract_x
_atom_site_fract_y
_atom_site_fract_z
_atom_site_occupancy
C1   C   0.794708056222440   0.859305409712370   0.445690012500002   1.0
C2   C   0.324980307362331   0.810195832621723   0.360839987500000   1.0
C3   C   0.933937432529063   0.663864810195207   0.428177499999997   1.0
C4   C   0.833244171022542   0.403455032297295   0.384807492500002   1.0
C5   C   0.923406281778433   0.247222871405384   0.477422522500000   1.0
C6   C   0.110121810207900   0.446141488426541   0.478377485000003   1.0
C7   C   0.375935415403241   0.272471278433805   0.487120009999998   1.0
C8   C   0.522224685294383   0.529136383644321   0.485192490000003   1.0
C9   C   0.313583349086478   0.895541385118158   0.418044997499997   1.0
C10   C   0.316641263098418   0.961412328683238   0.333522510000002   1.0
C11   C   0.260724781272032   0.777806842020510   0.279307507500000   1.0
C12   C   0.397652987535999   0.913915474270063   0.191944980000002   1.0
C13   C   0.305369001263571   0.647752356598666   0.147770000000001   1.0
C14   C   0.318209208706968   0.479418687326998   0.221799994999998   1.0
C15   C   0.699225701798554   0.308953191041340   0.108019994999999   1.0
C16   C   0.834726260576680   0.618226478999105   0.442287492500000   1.0
C17   C   0.690652608906582   0.032882040299178   0.135012507500001   1.0
C18   C   0.708360463032641   0.065045429026284   0.243890000000000   1.0
C19   C   0.925925875364918   0.990384950075473   0.300129984999998   1.0
C20   C   0.075314434927876   0.237506158508879   0.253399992500000   1.0
C21   C   0.981350912018534   0.513222165326731   0.284182500000000   1.0
C22   C   0.011862442250276   0.494458384059477   0.188307524999999   1.0
C23   C   0.782998939499087   0.687377464447309   0.175827502499999   1.0
C24   C   0.921588670258451   0.639135767161370   0.073797489999997   1.0
C25   C   0.596293598967776   0.723285532694909   0.079064989999999   1.0
C26   C   0.756343497514329   0.777806842020510   0.463880015000001   1.0
C27   C   0.654745299464878   0.800390241497183   0.483117485000001   1.0
C28   C   0.762123959589182   0.954025937737740   0.398769999999999   1.0
C29   C   0.430564719484998   0.335192384977383   0.134559990000000   1.0
C30   C   0.744962016106726   0.688183825786048   0.444630002499999   1.0
C31   C   0.459349783221263   0.610443617495712   0.383792495000002   1.0
C32   C   0.106213565538987   0.808302904708860   0.477772522499997   1.0
C33   C   0.803546291894094   0.539522741066598   0.419364977500003   1.0
C34   C   0.108163822556797   0.111503671613100   0.522392515000000   1.0
C35   C   0.933664403099279   0.516891509838082   0.548177480000000   1.0
C36   C   0.043136005421395   0.517772939694780   0.527540017500002   1.0
C37   C   0.051919705414662   0.321191293238144   0.435795022500003   1.0
C38   C   0.137650946367977   0.355534470560109   0.461194992499998   1.0
C39   C   0.933391373669487   0.304627895551469   0.447087480000000   1.0
C40   C   0.872505779623488   0.455099671736157   0.415337514999997   1.0
C41   C   0.996383085533516   0.125955707442472   0.512190009999998   1.0
C42   C   0.871499517958739   0.396888422913484   0.447327520000002   1.0
C43   C   0.769300670765439   0.210781882278106   0.364992524999998   1.0
C44   C   0.707104527655616   0.297924569354677   0.367590000000000   1.0
C45   C   0.342602453649960   0.362613535666931   0.467280007500001   1.0
C46   C   0.669184702685264   0.982458463487518   0.377607487500001   1.0
C47   C   0.682859475286271   0.678480799603669   0.335762502500003   1.0
C48   C   0.548700684537046   0.097372901161521   0.454737520000002   1.0
C49   C   0.471261698404220   0.502548824226523   0.450032520000001   1.0
C50   C   0.442788644899473   0.399293683553410   0.448649979999999   1.0
C51   C   0.586550434554027   0.460368052210846   0.537282515000001   1.0
C52   C   0.637942233665775   0.375589702293944   0.554154967499997   1.0
C53   C   0.420259871127456   0.652310039238301   0.418477487499999   1.0
C54   C   0.384758174206645   0.569151053779272   0.440692519999999   1.0
C55   C   0.586324132160939   0.618110350338746   0.341342497500001   1.0
C56   C   0.361418042778546   0.815060841100035   0.399004984999998   1.0
C57   C   0.334247792102658   0.724358289558964   0.418095017500001   1.0
C58   C   0.174525528871854   0.007688366461082   0.419049979999997   1.0
C59   C   0.077787317079348   0.754232669302432   0.447197484999997   1.0
C60   C   0.059704952384877   0.013831268520882   0.404752492500002   1.0
C61   C   0.475006125415256   0.135761298567012   0.483467484999998   1.0
C62   C   0.386450941069647   0.879538288572540   0.339440012499999   1.0
C63   C   0.245723850124662   0.351509838629198   0.444902515000003   1.0
C64   C   0.292614634272908   0.119805897111085   0.346374990000001   1.0
C65   C   0.862614274420118   0.932891170697296   0.071767500000000   1.0
C66   C   0.365755403901836   0.835847358821546   0.273950005000003   1.0
C67   C   0.434855205355618   0.842981163951791   0.306082487499999   1.0
C68   C   0.110059395680246   0.730104980718956   0.245267487500001   1.0
C69   C   0.028345611167758   0.777164570923013   0.223804999999999   1.0
C70   C   0.380592509590493   0.813079280951015   0.206227492499998   1.0
C71   C   0.433880037842506   0.808876885730939   0.242544985000002   1.0
C72   C   0.382667533256878   0.992277618330256   0.138547492500003   1.0
C73   C   0.292747349978306   0.032813613561622   0.120390010000001   1.0
C74   C   0.369803954494294   0.652262207486459   0.180617522500000   1.0
C75   C   0.432733322038239   0.740060715712517   0.187255002500002   1.0
C76   C   0.168542338544967   0.727057312319381   0.118387509999998   1.0
C77   C   0.106354019678513   0.810393938071627   0.123947500000000   1.0
C78   C   0.804123593121275   0.081048532405006   0.223472500000000   1.0
C79   C   0.387488452902844   0.477628454185336   0.189699984999997   1.0
C80   C   0.314792409210831   0.495783979563761   0.282639979999999   1.0
C81   C   0.350340840969181   0.402915203146030   0.298712494999997   1.0
C82   C   0.521499191493554   0.374093238105871   0.156907510000003   1.0
C83   C   0.473102665641711   0.400469019025841   0.191657495000001   1.0
C84   C   0.370155101544363   0.299790000843345   0.077247499999999   1.0
C85   C   0.395211355552973   0.335561345444859   0.041389989999999   1.0
C86   C   0.605670147264043   0.300568988753810   0.166590022500003   1.0
C87   C   0.684513269148376   0.329828340999008   0.051622510000001   1.0
C88   C   0.671665315470023   0.267626605283134   0.020300007499998   1.0
C89   C   0.714413946736435   0.094038249084015   0.164424992500003   1.0
C90   C   0.744384714879537   0.192913347410716   0.151457499999999   1.0
C91   C   0.771484890602061   0.934633442258075   0.095112492500000   1.0
C92   C   0.010770332331965   0.329486740293582   0.120499992500001   1.0
C93   C   0.442749664097747   0.567183180344387   0.185519982499997   1.0
C94   C   0.793849838915364   0.051857477068331   0.186852502500002   1.0
C95   C   0.658154212310912   0.251500471805564   0.136929989999999   1.0
C96   C   0.359616056342787   0.808712925318744   0.049897504999997   1.0
C97   C   0.913592886394504   0.513194798731575   0.208389997499999   1.0
C98   C   0.541976305117537   0.129973560930836   0.266590022499997   1.0
C99   C   0.529307794181271   0.221653458657258   0.285099982500000   1.0
C100   C   0.944819582113794   0.063125394176339   0.273260020000002   1.0
C101   C   0.905994812799676   0.037658286712293   0.237882519999999   1.0
C102   C   0.991195549770069   0.828453929775421   0.339044999999999   1.0
C103   C   0.963853594786208   0.243526160298877   0.266362477500003   1.0
C104   C   0.922626182091641   0.160121237638109   0.287025022500004   1.0
C105   C   0.177911156207948   0.216938594047974   0.203599977499998   1.0
C106   C   0.233640378849707   0.130479238211294   0.215307522499998   1.0
C107   C   0.973222404648354   0.424999813114511   0.261775017500000   1.0
C108   C   0.952284932202382   0.335800504204066   0.283642482500000   1.0
C109   C   0.056537826601023   0.568624904509029   0.333475017500000   1.0
C110   C   0.133305924818977   0.534520885946264   0.359252499999997   1.0
C111   C   0.926081954588668   0.830736030487465   0.309305000000002   1.0
C112   C   0.340035992611639   0.193343833177280   0.367640020000003   1.0
C113   C   0.891422842089867   0.437039809861403   0.233610010000000   1.0
C114   C   0.648824531466481   0.645647766350805   0.060417510000001   1.0
C115   C   0.980360267637174   0.797445274701921   0.004557490000003   1.0
C116   C   0.865001448733160   0.586596011151684   0.128302502499999   1.0
C117   C   0.823313685017446   0.634311559167379   0.096100000000000   1.0
C118   C   0.459045659639841   0.827914100624149   0.070737504999997   1.0
C119   C   0.003882135254585   0.725458413018188   0.031645012500000   1.0
C120   C   0.734672792833408   0.771786847063616   0.223077490000001   1.0
C121   C   0.813968230872810   0.513597911069866   0.184927512500003   1.0
C122   C   0.794177474231113   0.592684303017101   0.159017515000002   1.0
C123   C   0.073122398648728   0.389249063498717   0.146427490000001   1.0
C124   C   0.695972719960288   0.751185144398114   0.256904984999998   1.0
C125   C   0.731209133686278   0.588024185264345   0.078879999999998   1.0
H126   H   0.815770217308568   0.772012448937723   0.482067489999999   1.0
H127   H   0.719008712205287   0.703968365391290   0.360284997500003   1.0
H128   H   0.639463460038463   0.920475305211333   0.362839985000001   1.0
H129   H   0.686065737888676   0.038799463480807   0.360340022499997   1.0
H130   H   0.598602663461371   0.007968448700538   0.391284990000003   1.0
H131   H   0.722425355684607   0.704473919675813   0.419777490000001   1.0
H132   H   0.643582241601109   0.868119967937417   0.493092490000002   1.0
H133   H   0.674684248680229   0.651052733809429   0.450790025000003   1.0
H134   H   0.857348777053211   0.592205985498694   0.466580010000001   1.0
H135   H   0.134694427685425   0.764680408528534   0.497779989999998   1.0
H136   H   0.746186701315295   0.168013579188354   0.386732482500001   1.0
H137   H   0.796712841117802   0.568050930320055   0.395672512499999   1.0
H138   H   0.728705157383175   0.512326918926860   0.426267480000000   1.0
H139   H   0.948985231128269   0.485930686516426   0.410675002500000   1.0
H140   H   0.854290863041271   0.223416318370653   0.363282490000003   1.0
H141   H   0.742317585664097   0.174566495024933   0.341707517499998   1.0
H142   H   0.786790093546827   0.379771509361405   0.456982517500002   1.0
H143   H   0.905074258973357   0.440948313131955   0.465572500000000   1.0
H144   H   0.647669929012118   0.747836798773363   0.502432489999997   1.0
H145   H   0.896103307596306   0.268603698643510   0.425769997499998   1.0
H146   H   0.159711771099865   0.086433034706950   0.501772500000001   1.0
H147   H   0.036879715457154   0.848645618664143   0.485747480000001   1.0
H148   H   0.120957162548358   0.064027282356612   0.543445015000003   1.0
H149   H   0.437811794245739   0.390246615182662   0.422342489999998   1.0
H150   H   0.054400396207825   0.351161336485291   0.410502482500000   1.0
H151   H   0.138953741395994   0.310142206394801   0.481482505000002   1.0
H152   H   0.172099521973053   0.854870757171575   0.471807480000002   1.0
H153   H   0.925543634163219   0.452462160608611   0.562255002500002   1.0
H154   H   0.871148378709513   0.507215850250866   0.529652499999997   1.0
H155   H   0.911705051705184   0.577596774532779   0.562797547499997   1.0
H156   H   0.249257599826834   0.407445635353327   0.427102517500003   1.0
H157   H   0.256574757341781   0.292376106640532   0.431109999999997   1.0
H158   H   0.319028289195486   0.410547784118250   0.486977482500002   1.0
H159   H   0.511163100768400   0.107397062892645   0.431524992500002   1.0
H160   H   0.565449144450191   0.020671174868497   0.454829980000000   1.0
H161   H   0.141223747079451   0.175133567775425   0.529692507500002   1.0
H162   H   0.625429801953267   0.132850353813517   0.453044987500000   1.0
H163   H   0.530423267617934   0.510734798068214   0.431335019999999   1.0
H164   H   0.664582206583134   0.388975759701807   0.579354954999999   1.0
H165   H   0.711824122179763   0.351776240987625   0.539452505000000   1.0
H166   H   0.579732468446828   0.317234958215756   0.557347487500003   1.0
H167   H   0.343998843166503   0.594754748227260   0.463684987500002   1.0
H168   H   0.319238974305193   0.538306488947015   0.426994992499999   1.0
H169   H   0.481714879750548   0.682225342462019   0.432095002499999   1.0
H170   H   0.664192078731325   0.740580086540213   0.323274994999999   1.0
H171   H   0.740172346629208   0.638541327815716   0.322494984999999   1.0
H172   H   0.864307049083962   0.993944814539965   0.057872510000003   1.0
H173   H   0.507980349900322   0.358103684779131   0.454447507499999   1.0
H174   H   0.320580757935780   0.737231877577614   0.444577504999998   1.0
H175   H   0.025162860299680   0.077932703759061   0.413417482500002   1.0
H176   H   0.447734401401583   0.830804320562876   0.399109985000003   1.0
H177   H   0.309448950240458   0.655603508177471   0.200134992499997   1.0
H178   H   0.063706791542316   0.008795268362846   0.378459977500000   1.0
H179   H   0.241487970140007   0.814917482506665   0.357135010000000   1.0
H180   H   0.340441589530848   0.743409054504156   0.349375010000003   1.0
H181   H   0.451556797816927   0.900987405886077   0.355275012500002   1.0
H182   H   0.280694980655824   0.245787925683288   0.375204992500002   1.0
H183   H   0.411959815466119   0.230850800726074   0.362074995000000   1.0
H184   H   0.366621203626217   0.159451599945449   0.389467477499998   1.0
H185   H   0.471761030227093   0.774226252741258   0.313049984999999   1.0
H186   H   0.501997089365865   0.892063367614170   0.302147484999999   1.0
H187   H   0.459755536157289   0.765958302110022   0.162220002500000   1.0
H188   H   0.004287810182206   0.964412288326905   0.414244985000003   1.0
H189   H   0.965530744365829   0.793980814083021   0.240107490000000   1.0
H190   H   0.008146815943661   0.728478707989495   0.204599999999999   1.0
H191   H   0.448522239522497   0.738092849110735   0.249739980000001   1.0
H192   H   0.514298984184649   0.846383853279740   0.246172524999999   1.0
H193   H   0.295781760056762   0.809656003470451   0.207289982500001   1.0
H194   H   0.251254646288075   0.981904817793072   0.107340002500003   1.0
H195   H   0.310057337818435   0.081868573624774   0.099510004999999   1.0
H196   H   0.240239780997946   0.061874867190014   0.139229989999997   1.0
H197   H   0.323443611922244   0.902299314676227   0.270652484999999   1.0
H198   H   0.936402420229598   0.928135129782781   0.087015010000002   1.0
H199   H   0.504883299069832   0.716343047738917   0.201100015000001   1.0
H200   H   0.083622377239315   0.250297776571081   0.432340002499998   1.0
H201   H   0.558950927008631   0.433021963206151   0.146560004999998   1.0
H202   H   0.387714755295932   0.409399822074086   0.041044999999997   1.0
H203   H   0.082171381836815   0.822112799269775   0.150290012500001   1.0
H204   H   0.498806451847685   0.579045406969016   0.206610012500001   1.0
H205   H   0.500530468879134   0.567702421343043   0.165910005000001   1.0
H206   H   0.329278679883046   0.468178280309402   0.168079997500001   1.0
H207   H   0.324005288065202   0.397107116516004   0.324550010000003   1.0
H208   H   0.435619679958180   0.391216930100498   0.292124987500003   1.0
H209   H   0.311531696739287   0.352746555905455   0.285785007500003   1.0
H210   H   0.448506614438266   0.339210224799530   0.206867504999998   1.0
H211   H   0.539308526758241   0.422690215978264   0.208090020000000   1.0
H212   H   0.337032684485656   0.314105313026630   0.022802495000000   1.0
H213   H   0.035210304311661   0.809854108920362   0.108404995000001   1.0
H214   H   0.160991062194398   0.867334331413446   0.118237495000002   1.0
H215   H   0.570675668816207   0.248978952676232   0.181107522500000   1.0
H216   H   0.661079558833428   0.339585977375769   0.182882499999998   1.0
H217   H   0.601059920528620   0.203689137290262   0.125472497499999   1.0
H218   H   0.599726023548136   0.227816819040633   0.018385004999999   1.0
H219   H   0.742957231211363   0.224612105333556   0.017472505000001   1.0
H220   H   0.669691772942265   0.321362155088828   0.003167509999997   1.0
H221   H   0.776352677699862   0.219241289745746   0.173990009999997   1.0
H222   H   0.815239783533222   0.182137564364282   0.135214997500000   1.0
H223   H   0.644619745633456   0.091175265911403   0.178592492500002   1.0
H224   H   0.265576951086445   0.693650304877536   0.407170010000002   1.0
H225   H   0.467649987098582   0.313073616304976   0.031477500000001   1.0
H226   H   0.050094363261394   0.841963017282119   0.210987520000003   1.0
H227   H   0.980750247273001   0.568310677231871   0.346859979999998   1.0
H228   H   0.519010692058693   0.482514180645303   0.553172492500003   1.0
H229   H   0.588625450419578   0.787858377179901   0.466067504999998   1.0
H230   H   0.819038816430215   0.158283179577708   0.222527505000002   1.0
H231   H   0.533847953764166   0.286738765698367   0.268819999999998   1.0
H232   H   0.599780629434093   0.229784822304566   0.301447487499999   1.0
H233   H   0.455262244026230   0.233501998567753   0.296932509999998   1.0
H234   H   0.967051962937674   0.057638313266025   0.220284987500001   1.0
H235   H   0.899917965577529   0.963749422243687   0.237004994999999   1.0
H236   H   0.029437728886911   0.062899792302232   0.271432494999999   1.0
H237   H   0.072521733903194   0.822044502361258   0.336177492499999   1.0
H238   H   0.819085683882051   0.458468475684477   0.244960022500003   1.0
H239   H   0.963947181473898   0.770850807012536   0.354589987499999   1.0
H240   H   0.839391249214877   0.165287176166572   0.289139987500000   1.0
H241   H   0.915316763010821   0.250803460684644   0.244479990000002   1.0
H242   H   0.294627305818366   0.109611003358324   0.198667479999998   1.0
H243   H   0.176467969447131   0.077502217992496   0.217117500000000   1.0
H244   H   0.272691310141781   0.141555691649799   0.238457490000002   1.0
H245   H   0.002072340177136   0.330340803555117   0.306622505000000   1.0
H246   H   0.874526189603074   0.342209931618221   0.293944979999999   1.0
H247   H   0.054244387191645   0.411716327481919   0.253777505000002   1.0
H248   H   0.140584101532184   0.589807633130356   0.377657509999999   1.0
H249   H   0.208537187181697   0.516925654875791   0.347300005000001   1.0
H250   H   0.852418645635332   0.876169477791109   0.054789997500002   1.0
H251   H   0.106751807956030   0.473658446115024   0.372629979999999   1.0
H252   H   0.985461955147052   0.890115699677878   0.353035020000000   1.0
H253   H   0.865875135107636   0.376703512467301   0.218919992499998   1.0
H254   H   0.049111457314162   0.284736617396725   0.103204990000002   1.0
H255   H   0.878574896212349   0.514219717010683   0.122747494999999   1.0
H256   H   0.962293535827769   0.369023092910133   0.104167510000004   1.0
H257   H   0.753862736513597   0.519488097485372   0.202745007499999   1.0
H258   H   0.803756977003800   0.447679005923909   0.172319985000002   1.0
H259   H   0.720498540193546   0.575034331923192   0.150040007500003   1.0
H260   H   0.971857265300258   0.283923477615446   0.135964989999998   1.0
H261   H   0.760384317473502   0.725567763236000   0.270244980000001   1.0
H262   H   0.627543806421386   0.709919940443726   0.252834987500002   1.0
H263   H   0.674216159224962   0.820425008074338   0.266464997500002   1.0
H264   H   0.953361573053286   0.166011430886719   0.313009977500002   1.0
H265   H   0.927860593107759   0.777007388953358   0.984411240000000   1.0
H266   H   0.052325380342282   0.819119870893630   0.993641757500001   1.0
H267   H   0.947768284353813   0.862120561133139   0.014045000000003   1.0
H268   H   0.689778914731264   0.542194527060886   0.095659994999998   1.0
H269   H   0.764659178259890   0.550196075333695   0.058932495000001   1.0
H270   H   0.698445602111761   0.676813480398025   0.040190005000000   1.0
H271   H   0.386123305753905   0.829430893306757   0.023957490000001   1.0
H272   H   0.922548212687339   0.578239175459316   0.222057485000001   1.0
H273   H   0.293254279820168   0.856148527757128   0.057502507499997   1.0
H274   H   0.336307182883985   0.733589776665490   0.051215005000003   1.0
H275   H   0.946723041887338   0.611748631680491   0.134787512499997   1.0
H276   H   0.799170098185051   0.704849795247988   0.101035000000003   1.0
H277   H   0.600420274981353   0.595738743026111   0.046522500000002   1.0
H278   H   0.773895428433448   0.978939262845195   0.187529992499996   1.0
H279   H   0.828353028207239   0.929932394191965   0.381962489999999   1.0
H280   H   0.128048165886192   0.705635561601007   0.438145017499998   1.0
H281   H   0.049166063200119   0.800424386534893   0.426837492499999   1.0
H282   H   0.628128846082696   0.281805207486556   0.376254987499998   1.0
H283   H   0.691299985087134   0.338055361316883   0.345457507500001   1.0
H284   H   0.957534960501889   0.141152579311502   0.534652520000002   1.0
H285   H   0.964282695638907   0.064662775011563   0.499152520000003   1.0
H286   H   0.110293444308304   0.517069150131313   0.543900012500004   1.0
H287   H   0.049626266005291   0.579585236120280   0.511280012500002   1.0
H288   H   0.515820202756494   0.135371743113808   0.507550002499997   1.0
H289   H   0.114927112570477   0.668306364174477   0.121622490000000   1.0
H290   H   0.198442953726293   0.720313069475445   0.092359997499997   1.0
H291   H   0.636101266428291   0.522603926131325   0.542177487499998   1.0
H292   H   0.528387240354959   0.621239865698826   0.321417525000001   1.0
H293   H   0.157215463023313   0.001887065106708   0.445375015000003   1.0
H294   H   0.220698698068524   0.076518216360533   0.416007520000001   1.0
H295   H   0.273518277280402   0.143270849440391   0.321362495000003   1.0
H296   H   0.217079178121196   0.103775420304096   0.357434987500000   1.0
H297   H   0.131979766272607   0.661193017367808   0.234952497499997   1.0
H298   H   0.080018326359394   0.704166464008090   0.268182517500001   1.0
H299   H   0.426445930121517   0.047675670000871   0.148874999999997   1.0
H300   H   0.437374947158077   0.971518726861987   0.117639994999998   1.0
H301   H   0.616505585413748   0.372835932676999   0.048947499999997   1.0
H302   H   0.612199474458912   0.548405719196104   0.342810012500003   1.0
H303   H   0.330987079631115   0.558279607229160   0.296484995000000   1.0
H304   H   0.407606837059447   0.093600984874904   0.481514977499998   1.0
H305   H   0.077428509603564   0.632391524317434   0.324717524999997   1.0
H306   H   0.784200261189312   0.014500906213534   0.413310005000000   1.0
H307   H   0.290141752121436   0.321936136110906   0.082570005000001   1.0
H308   H   0.765587478321173   0.355145038102840   0.049927500000003   1.0
H309   H   0.772701837376509   0.862967975781174   0.105625009999997   1.0
H310   H   0.698414492358445   0.940100051178611   0.080979992499998   1.0
H311   H   0.489164612555754   0.134695320145497   0.244917487499997   1.0
H312   H   0.533473450996588   0.068851483517498   0.278607512500002   1.0
H313   H   0.841692427058376   0.838703433722571   0.315170002499997   1.0
H314   H   0.937104558312917   0.763559819912636   0.298150014999997   1.0
H315   H   0.161443534366278   0.203696038728744   0.177640009999997   1.0
H316   H   0.232626238335705   0.504632949317710   0.282327510000002   1.0
H317   H   0.382074747360605   0.223102091093494   0.078885007499998   1.0
H318   H   0.873613514626015   0.052691205002226   0.176324987500003   1.0
H319   H   0.105542747831677   0.449933863036733   0.133030009999999   1.0
H320   H   0.145631261164517   0.354680407298574   0.154244994999999   1.0
H321   H   0.805200077955362   0.813332133257454   0.219162512499999   1.0
H322   H   0.673693612099711   0.811254909604756   0.209617520000002   1.0
H323   H   0.068894405314168   0.751096245670766   0.048767495000000   1.0
H324   H   0.033455115120169   0.666447711128363   0.019175005000001   1.0
H325   H   0.429768994713989   0.817725848651783   0.096589995000002   1.0
H326   H   0.475247904676593   0.897666303860554   0.070027494999998   1.0
H327   H   0.225480636912756   0.278443311809816   0.208612490000000   1.0
O328   O   0.424589345600644   0.534937684998695   0.372739985000003   1.0
O329   O   0.526944131602555   0.608817214937211   0.493785000000003   1.0
O330   O   0.344217266710338   0.257267628122236   0.515185022499999   1.0
O331   O   0.129452286036020   0.519652051064469   0.465877485000000   1.0
O332   O   0.064627275161065   0.560609669522087   0.181739997500003   1.0
O333   O   0.866881396772385   0.416444742143192   0.357224989999999   1.0
O334   O   0.961638265196278   0.657031675457027   0.399142505000000   1.0
O335   O   0.352470603135821   0.921110797866284   0.445435000000003   1.0
O336   O   0.914380724515418   0.710179557526502   0.052640009999998   1.0
O337   O   0.839539441788524   0.243601358645876   0.493997479999997   1.0
O338   O   0.227657055908523   0.955119152925370   0.319000007500002   1.0
O339   O   0.759658823672673   0.373683217495994   0.113227510000002   1.0
O340   O   0.250295103859187   0.714033450602670   0.298662520000001   1.0
O341   O   0.322289009467873   0.593326574114599   0.123760009999998   1.0
O342   O   0.226978429559530   0.458557230916568   0.220047522500003   1.0
O343   O   0.358157330307002   0.293045751166296   0.146777510000000   1.0
O344   O   0.602300223020578   0.016988150476124   0.126192497500000   1.0
O345   O   0.683951733420557   0.985813450892664   0.247720004999998   1.0
O346   O   0.891719235038003   0.008959228775048   0.326564980000001   1.0
O347   O   0.151271269099844   0.242125359614484   0.272347500000002   1.0
O348   O   0.923702666925728   0.581197828968719   0.280975007499997   1.0
O349   O   0.802610253398690   0.755155152468426   0.159177495000002   1.0
O350   O   0.997014992646655   0.585864854993055   0.074492505000002   1.0
O351   O   0.872435556454143   0.906132619599774   0.453525020000001   1.0
O352   O   0.222602157842076   0.929426710078403   0.405617522500002   1.0
O353   O   0.355091677860940   0.921411345262420   0.160492515000001   1.0
O354   O   0.451283768387135   0.971867235839007   0.206207515000003   1.0
O355   O   0.540853093246753   0.654892940171457   0.370580007500003   1.0
O356   O   0.563584673279216   0.452865272946902   0.502442502500003   1.0
O357   O   0.444590631335231   0.223088404379361   0.470559979999997   1.0
O358   O   0.751959424956027   0.684808243395175   0.207264995000003   1.0
O359   O   0.005387736543042   0.199978869298661   0.487780000000001   1.0
O360   O   0.752887725017303   0.348373421830637   0.392322492500000   1.0
O361   O   0.356441192124812   0.039933738810838   0.345604992500000   1.0
O362   O   0.985898802234715   0.704426087923970   0.453432512500001   1.0
O363   O   0.060336859498015   0.438201451786597   0.508162499999997   1.0
O364   O   0.603439208191560   0.739903670405006   0.108514999999997   1.0
O365   O   0.192810762233499   0.792716600382562   0.253985022499997   1.0
O366   O   0.243453774233636   0.722943802160437   0.143552495000002   1.0
O367   O   0.366036163964907   0.501940698166734   0.250297497500000   1.0
O368   O   0.443592108104618   0.336278821722466   0.099665000000002   1.0
O369   O   0.674075853301410   0.274316114936745   0.078905010000000   1.0
O370   O   0.650688862222324   0.133041680820881   0.255192517499999   1.0
O371   O   0.949679482561493   0.905825034103017   0.289722490000003   1.0
O372   O   0.081929602575478   0.232627340320498   0.219627525000000   1.0
O373   O   0.058456833450386   0.503580657610328   0.307614995000002   1.0
O374   O   0.012759492143104   0.413240035269219   0.175757502499998   1.0
O375   O   0.730748923080270   0.880590573446810   0.418812514999999   1.0
O376   O   0.775151348208794   0.997730417540716   0.122177505000003   1.0
O377   O   0.529775891437382   0.760710386792006   0.058112502500002   1.0


# Number_of_total_atoms: 377
# Number_of_atom_type: 3
# Name_of_each_atom: C H O
# Number_of_each_atom: 125 202 50
# Created_by: Lihua Chen (lihua.chen@mse.gatech.edu)
# Tool: VASP
# K-points: 1 1 1
# Pseudopotential: PBE-HSE06
# Material_class: MC_Pol
# Geometry_class: GC_PD
# Bandgap_(eV): 5.14
