#======================================================================

# Note: Disordered slab of isotactic polyethyl acrylate
# Common_name: Disordered slab-5

#----------------------------------------------------------------------

data_1
_audit_creation_method   'vasp2cif'
_cell_length_a    12.6821966
_cell_length_b    14.1638947
_cell_length_c    40.0
_cell_angle_alpha    90.0
_cell_angle_beta    90.0
_cell_angle_gamma    90.0

_symmetry_space_group_name_H-M    'P 1'
loop_
_atom_site_label
_atom_site_type_symbol
_atom_site_fract_x
_atom_site_fract_y
_atom_site_fract_z
_atom_site_occupancy
C1   C   0.725260630323298   0.884159891417433   0.477787495000001   1.0
C2   C   0.300972979712363   0.825192967581152   0.353205012499998   1.0
C3   C   0.882220868583602   0.716593007430362   0.433045004999997   1.0
C4   C   0.779068335843334   0.422062330073665   0.391155005000002   1.0
C5   C   0.858084616035683   0.281041781537674   0.494584990000000   1.0
C6   C   0.054162407480739   0.462206634450624   0.468524979999998   1.0
C7   C   0.283491725715720   0.245818454157245   0.490482522500003   1.0
C8   C   0.470028796115649   0.481410483798641   0.472954989999998   1.0
C9   C   0.364045657516456   0.825242523159957   0.414387512499999   1.0
C10   C   0.318785248921309   0.011137282741870   0.330997515000000   1.0
C11   C   0.243948165887922   0.839680529395636   0.268079997500003   1.0
C12   C   0.415369558298757   0.929246318104866   0.189225007499999   1.0
C13   C   0.298812391853318   0.667235079063389   0.148095015000003   1.0
C14   C   0.339002653530855   0.477725035614675   0.217192507500002   1.0
C15   C   0.746983949137011   0.283202303106641   0.103802490000000   1.0
C16   C   0.793095890029022   0.653206451753697   0.447992515000003   1.0
C17   C   0.726191131589935   0.989865280486733   0.129242492499998   1.0
C18   C   0.729045495162879   0.024241044378847   0.244100000000003   1.0
C19   C   0.922962935300973   0.992703433470176   0.304790019999999   1.0
C20   C   0.091774125312014   0.244936006196092   0.268212509999998   1.0
C21   C   0.982629294675974   0.506311777367280   0.275785017499999   1.0
C22   C   0.006851959699155   0.468603250771132   0.177797507500003   1.0
C23   C   0.794168212153409   0.678086607068607   0.161787510000003   1.0
C24   C   0.955481048133258   0.663881439333210   0.063974999999999   1.0
C25   C   0.600589766917821   0.678580814357510   0.064864992499999   1.0
C26   C   0.695707413966439   0.782464621118656   0.485957480000003   1.0
C27   C   0.596221517335572   0.772982758760556   0.509137487499999   1.0
C28   C   0.749120771396967   0.005157310298273   0.432910012500002   1.0
C29   C   0.462948019588339   0.348452731719334   0.123977494999998   1.0
C30   C   0.696077988571787   0.721351578531575   0.454869985000002   1.0
C31   C   0.476037258403643   0.567453230219229   0.374687479999999   1.0
C32   C   0.027723730445878   0.894848879383439   0.441655017499997   1.0
C33   C   0.756359320277369   0.572402356253043   0.422642519999997   1.0
C34   C   0.021060823170018   0.108186825195759   0.528170012499999   1.0
C35   C   0.133683261147361   0.591867313162105   0.540862512499999   1.0
C36   C   0.092026494842386   0.585068328699165   0.507630014999997   1.0
C37   C   0.975966458365740   0.318891561655000   0.440170002499997   1.0
C38   C   0.064759893408372   0.355096306950095   0.462052489999998   1.0
C39   C   0.864029911032922   0.324469158895965   0.458797502499998   1.0
C40   C   0.816593420417405   0.478070985659052   0.421470024999998   1.0
C41   C   0.902422329582876   0.129501640533938   0.525197505000001   1.0
C42   C   0.813273735245517   0.421730528680079   0.455154992499999   1.0
C43   C   0.588328452501678   0.229354049066743   0.386385012500000   1.0
C44   C   0.673368980890899   0.295508190978005   0.372157479999998   1.0
C45   C   0.273422429045141   0.334445242663378   0.467574977500000   1.0
C46   C   0.720419245038357   0.007268283348644   0.396942520000003   1.0
C47   C   0.701439906711428   0.682873461350994   0.331282520000002   1.0
C48   C   0.509887884879504   0.178104112846874   0.543830014999998   1.0
C49   C   0.426045855494778   0.442275746373632   0.440584995000002   1.0
C50   C   0.376172815362288   0.343093965531949   0.444137477500000   1.0
C51   C   0.571004962973056   0.450239699960491   0.521957495000002   1.0
C52   C   0.483977554803083   0.451136282452026   0.548752499999999   1.0
C53   C   0.397218144370982   0.598553320224838   0.404167510000001   1.0
C54   C   0.352068134632134   0.511239758087157   0.423925019999999   1.0
C55   C   0.616809346734144   0.606834940674901   0.338119984999999   1.0
C56   C   0.365693542394702   0.770836498805657   0.382145022499998   1.0
C57   C   0.322388733510095   0.669070661758028   0.389377500000002   1.0
C58   C   0.419674790406575   0.972370170190551   0.440442515000001   1.0
C59   C   0.045930339859261   0.787562011457204   0.441802502500003   1.0
C60   C   0.364684237744747   0.061420069721358   0.426602507500000   1.0
C61   C   0.397888312187178   0.165127336056798   0.528592492500003   1.0
C62   C   0.364573846773517   0.908432847922825   0.334822512499997   1.0
C63   C   0.170388322161792   0.325005790956638   0.444832517499997   1.0
C64   C   0.190219208555718   0.120902212016588   0.347895004999998   1.0
C65   C   0.784509049481223   0.986617487349719   0.052712487500003   1.0
C66   C   0.365386135080101   0.867857892222254   0.266870022500001   1.0
C67   C   0.424587164971094   0.863897187826453   0.303032492500002   1.0
C68   C   0.121414124742394   0.719635842816594   0.251482487499999   1.0
C69   C   0.045796340990329   0.765809675215955   0.228607512499998   1.0
C70   C   0.398708414597515   0.829083105228115   0.202419997500002   1.0
C71   C   0.428884575090095   0.814927358927626   0.238857507500001   1.0
C72   C   0.376488194482022   0.029472550371331   0.141129995000000   1.0
C73   C   0.281433714724152   0.066863417164491   0.119797492499998   1.0
C74   C   0.381589921102467   0.667489182901086   0.175542497499997   1.0
C75   C   0.448415876158236   0.756440783197860   0.178262519999997   1.0
C76   C   0.181987219784936   0.776632920039994   0.118602490000001   1.0
C77   C   0.091064484838533   0.847326674915195   0.129959990000003   1.0
C78   C   0.827269717613433   0.049537702366564   0.221967509999999   1.0
C79   C   0.404101762623675   0.478254529808105   0.184802484999999   1.0
C80   C   0.345231747944986   0.457066833460715   0.278459977499999   1.0
C81   C   0.340918693848351   0.563245291565181   0.285239982500002   1.0
C82   C   0.543911927686089   0.364931130136121   0.151280022500003   1.0
C83   C   0.484907898368334   0.395042932647613   0.184789992500001   1.0
C84   C   0.357359055607134   0.431141831349535   0.082567502499998   1.0
C85   C   0.362358213245173   0.381939171010643   0.047795010000001   1.0
C86   C   0.624591878665562   0.278359030726200   0.158947515000001   1.0
C87   C   0.855861010702199   0.279262609880881   0.053325010000002   1.0
C88   C   0.967663409349768   0.229431753682832   0.044374990000001   1.0
C89   C   0.744508131974548   0.058447666940083   0.160725022500003   1.0
C90   C   0.782190839085402   0.160460604102063   0.151609992499999   1.0
C91   C   0.822310119368439   0.918394655955751   0.081447507500002   1.0
C92   C   0.080490606808603   0.320063534502275   0.125282502499999   1.0
C93   C   0.451956185571198   0.575932536408928   0.175395012499997   1.0
C94   C   0.820654254799990   0.008934470545029   0.185274982499997   1.0
C95   C   0.692584894954237   0.222343237273570   0.131772495000000   1.0
C96   C   0.415077794961796   0.877353769087257   0.056472492499999   1.0
C97   C   0.902785082199401   0.502132114834204   0.192229987499999   1.0
C98   C   0.568694732267438   0.099072171159250   0.268050002499997   1.0
C99   C   0.571186343223857   0.190671242423171   0.287532519999999   1.0
C100   C   0.959786280241076   0.059591490750066   0.277487517499999   1.0
C101   C   0.931250190522988   0.023231343283001   0.240154982500002   1.0
C102   C   0.019294575515410   0.799035006946220   0.346584989999997   1.0
C103   C   0.971053933984905   0.241123439021329   0.263062477500000   1.0
C104   C   0.925628096634298   0.162381029280034   0.285557509999997   1.0
C105   C   0.251470514185215   0.198981146054415   0.247412490000002   1.0
C106   C   0.303157025652794   0.177666323656020   0.212922477500001   1.0
C107   C   0.956458773080364   0.422584827603949   0.251935005000000   1.0
C108   C   0.920352961568184   0.335271265466268   0.275157499999999   1.0
C109   C   0.067701032169772   0.555224912820059   0.325589989999997   1.0
C110   C   0.112164938367222   0.497041728219003   0.355162477500002   1.0
C111   C   0.933071633663211   0.833213480470171   0.322717525000002   1.0
C112   C   0.092759743213570   0.122307284591713   0.370349980000000   1.0
C113   C   0.873515657374369   0.451305692070697   0.224687480000000   1.0
C114   C   0.698979733526606   0.662801305632414   0.044022490000003   1.0
C115   C   0.123543125013533   0.571858720469024   0.016552497500001   1.0
C116   C   0.874304187966935   0.566711908695567   0.113890005000002   1.0
C117   C   0.854662495927556   0.636106578792905   0.083097504999998   1.0
C118   C   0.467639604325328   0.790188471254311   0.072497509999998   1.0
C119   C   0.137775683117859   0.625932809285850   0.050105000000002   1.0
C120   C   0.737734754876769   0.754223829410421   0.211154985000000   1.0
C121   C   0.806555711334738   0.500451793107445   0.166292477500001   1.0
C122   C   0.793821245445763   0.583543409144376   0.142472505000001   1.0
C123   C   0.100305778259262   0.323734841095650   0.161845017499999   1.0
C124   C   0.680788910022102   0.715180931131890   0.242999982500002   1.0
C125   C   0.775512216866282   0.591316673654738   0.057785010000004   1.0
H126   H   0.762233775811360   0.753913166270571   0.501065015000002   1.0
H127   H   0.672367648046084   0.747170734049583   0.318837500000001   1.0
H128   H   0.755026814518864   0.943846716115445   0.383405017500003   1.0
H129   H   0.765687317920936   0.060608061425363   0.382742499999999   1.0
H130   H   0.633470490435386   0.021826404851765   0.394142485000003   1.0
H131   H   0.667116128762743   0.755664181829871   0.431392480000000   1.0
H132   H   0.594967673029132   0.830142093614974   0.527059985000001   1.0
H133   H   0.625719538206809   0.680303553795838   0.459827519999997   1.0
H134   H   0.825779447386900   0.618293660429430   0.469777489999999   1.0
H135   H   0.094660068587800   0.943126815253720   0.444612502500000   1.0
H136   H   0.604177457712652   0.232375880343135   0.412974977499999   1.0
H137   H   0.767903093380525   0.606630251211904   0.399252509999997   1.0
H138   H   0.674985435882611   0.553163361204597   0.421777489999997   1.0
H139   H   0.900932059356343   0.504906838936044   0.417530012500002   1.0
H140   H   0.587137917417238   0.159366328810677   0.374875019999998   1.0
H141   H   0.505456475891563   0.253994235074337   0.384142494999999   1.0
H142   H   0.731308494302951   0.414938682084383   0.463027477499999   1.0
H143   H   0.844254212239541   0.462658565232061   0.475312520000003   1.0
H144   H   0.586049651682579   0.706991015684409   0.522295000000000   1.0
H145   H   0.808574320634648   0.279975789427468   0.445564984999997   1.0
H146   H   0.067811423141002   0.166115764755013   0.529505014999998   1.0
H147   H   0.988361779535886   0.909654235144799   0.465385007499997   1.0
H148   H   0.049179043636649   0.068939103310335   0.505787515000002   1.0
H149   H   0.364542409001920   0.310800623221240   0.419250012500001   1.0
H150   H   0.983567610046357   0.346546448131953   0.415560007499998   1.0
H151   H   0.064712590877200   0.318898699522244   0.486777497500000   1.0
H152   H   0.973553508861393   0.913982027838713   0.420889997499998   1.0
H153   H   0.074639924758777   0.572974268158035   0.560177517500001   1.0
H154   H   0.134156404735123   0.663521347698243   0.547187520000001   1.0
H155   H   0.209253821218951   0.552386759836615   0.546885015000001   1.0
H156   H   0.173652740882446   0.369026091389962   0.421897510000001   1.0
H157   H   0.159853853708590   0.252596300366449   0.436219979999997   1.0
H158   H   0.267619112607036   0.396793948206913   0.481990005000000   1.0
H159   H   0.565966403643358   0.205130513996267   0.525802517499997   1.0
H160   H   0.540363630697854   0.113220786652697   0.554742527499997   1.0
H161   H   0.028575349478494   0.062344942454281   0.550889970000000   1.0
H162   H   0.505803434714139   0.219208562740867   0.568900012500002   1.0
H163   H   0.501253662949843   0.439924669872049   0.424994994999999   1.0
H164   H   0.518230185770818   0.478473353801476   0.571835040000003   1.0
H165   H   0.457814855196297   0.378705646547907   0.552417470000002   1.0
H166   H   0.426227235745579   0.502831145729992   0.541747522500003   1.0
H167   H   0.303125595766275   0.542092875062110   0.440840007500000   1.0
H168   H   0.293403257918271   0.471879192945423   0.408582497499999   1.0
H169   H   0.451246623948407   0.640808731796064   0.420144987500002   1.0
H170   H   0.759765630821398   0.656030463146550   0.313730002500002   1.0
H171   H   0.741007066551859   0.706200272725837   0.354852485000002   1.0
H172   H   0.793616257297259   0.948337182992475   0.029104994999997   1.0
H173   H   0.444031682965708   0.310779484967505   0.456492519999998   1.0
H174   H   0.246297806170269   0.665067546710866   0.401277495000002   1.0
H175   H   0.413563759136174   0.101790343019140   0.407742499999998   1.0
H176   H   0.447808725816472   0.765795540685573   0.375210000000003   1.0
H177   H   0.341920026693167   0.670193213170386   0.198892500000000   1.0
H178   H   0.285186991975820   0.043119947792327   0.417539977499999   1.0
H179   H   0.228154293082007   0.851358207287433   0.365450002499998   1.0
H180   H   0.274392332003430   0.769918643916490   0.335777522500003   1.0
H181   H   0.425391481472538   0.923816985168635   0.353000020000003   1.0
H182   H   0.118575483997780   0.103223557571354   0.395104979999999   1.0
H183   H   0.037903347122061   0.062472054384870   0.363369990000002   1.0
H184   H   0.052206886620887   0.185905526394514   0.371027519999998   1.0
H185   H   0.429775524848750   0.788762394569339   0.306374980000001   1.0
H186   H   0.506867785033393   0.881780672938781   0.302177477500003   1.0
H187   H   0.450592100109851   0.781419774322380   0.152137517500002   1.0
H188   H   0.346146455417667   0.109747158738763   0.444692517500002   1.0
H189   H   0.003871640028038   0.719741823553662   0.211805009999999   1.0
H190   H   0.089250934652753   0.804669022285232   0.210867499999999   1.0
H191   H   0.438851302778261   0.738938535034436   0.242500020000001   1.0
H192   H   0.515454633466256   0.846020720557881   0.240827512499998   1.0
H193   H   0.311586259433952   0.826520208456508   0.199707510000003   1.0
H194   H   0.230362175587153   0.018465761398240   0.108832502500000   1.0
H195   H   0.312012037409986   0.105899304659474   0.099440004999998   1.0
H196   H   0.236315292573209   0.114145645265211   0.132912492499997   1.0
H197   H   0.367223214312887   0.944305650620237   0.259452487499999   1.0
H198   H   0.700130859034310   0.009245401972663   0.057112502499997   1.0
H199   H   0.525413539165605   0.737208791872760   0.189042520000001   1.0
H200   H   0.986051399013952   0.243093285634210   0.436562490000000   1.0
H201   H   0.587153711211194   0.428444804803583   0.143757510000000   1.0
H202   H   0.288309503102958   0.366879838495272   0.036435007500003   1.0
H203   H   0.121146048153832   0.910091897251959   0.143834997500001   1.0
H204   H   0.524861584309456   0.588386688585025   0.191857482499998   1.0
H205   H   0.480618460054465   0.564268993047513   0.149592495000000   1.0
H206   H   0.343607470964457   0.464218905835274   0.167885017499998   1.0
H207   H   0.275180862595995   0.593794742063423   0.271175005000004   1.0
H208   H   0.416670484354420   0.602732982757914   0.277577495000003   1.0
H209   H   0.312161822187804   0.576341915334915   0.310925007500003   1.0
H210   H   0.444339247981695   0.333244993695132   0.196502494999997   1.0
H211   H   0.547507424699596   0.406212261659924   0.203630017499997   1.0
H212   H   0.403147645574272   0.313144561855573   0.049385000000001   1.0
H213   H   0.043848713084927   0.802261520625400   0.146070004999999   1.0
H214   H   0.046908135772000   0.875730006662643   0.110369992499997   1.0
H215   H   0.581090053437592   0.230519018190670   0.175955010000003   1.0
H216   H   0.675001229676568   0.305950205913348   0.178727485000003   1.0
H217   H   0.636955762064119   0.180688154932412   0.116245007499998   1.0
H218   H   0.963681528166816   0.154918286705424   0.039800000000000   1.0
H219   H   0.024609112273183   0.235517699803289   0.063847494999997   1.0
H220   H   0.006757354636811   0.252892828975916   0.021189999999997   1.0
H221   H   0.817610547056177   0.200682613095111   0.171350005000001   1.0
H222   H   0.853038226832091   0.146516678071606   0.136532497499999   1.0
H223   H   0.673999739130366   0.077820911786361   0.175447512500000   1.0
H224   H   0.309110300340244   0.644211792961158   0.362540007500002   1.0
H225   H   0.407310907008018   0.429849743234819   0.031579995000001   1.0
H226   H   0.993904912339872   0.817299580743139   0.239372492500003   1.0
H227   H   0.992667003758640   0.579631992039587   0.334947489999998   1.0
H228   H   0.600976135317126   0.523927009991112   0.517892504999999   1.0
H229   H   0.524412206320790   0.781716302931848   0.491475010000002   1.0
H230   H   0.835115416835599   0.125470242305603   0.220725012499997   1.0
H231   H   0.553295105045130   0.247272948167286   0.270004987500002   1.0
H232   H   0.650147420045514   0.204431624304576   0.297330000000002   1.0
H233   H   0.517575811748571   0.189951066213446   0.308317517500001   1.0
H234   H   0.001214450499845   0.037196541711090   0.226634980000000   1.0
H235   H   0.919927191477221   0.944566892325170   0.244232512499998   1.0
H236   H   0.045378392888182   0.056223709429297   0.279024982499998   1.0
H237   H   0.999014153431432   0.739086799339169   0.361152507500002   1.0
H238   H   0.810293194792457   0.489840368553430   0.235912515000002   1.0
H239   H   0.050708715554841   0.861376574622518   0.360772515000001   1.0
H240   H   0.836984233472613   0.170486109304385   0.283309985000002   1.0
H241   H   0.949220224199962   0.223825873260694   0.236912490000002   1.0
H242   H   0.273422429045141   0.223952999311692   0.193365002500002   1.0
H243   H   0.289594785180981   0.105511071047431   0.203534984999997   1.0
H244   H   0.387188257277131   0.193290564353035   0.216912507499998   1.0
H245   H   0.940160240064408   0.357638065467967   0.300757502499998   1.0
H246   H   0.834658059156723   0.331783503021946   0.275442505000001   1.0
H247   H   0.028409763021649   0.407299526167755   0.239947510000000   1.0
H248   H   0.055077036102723   0.441922792605908   0.360599995000001   1.0
H249   H   0.129433224525158   0.549181384411170   0.375287485000001   1.0
H250   H   0.835288817396190   0.051069759788596   0.053625012499999   1.0
H251   H   0.186434422566826   0.469746940437226   0.347550009999999   1.0
H252   H   0.082438234714012   0.773907758577167   0.331479979999998   1.0
H253   H   0.830329219151203   0.391710565315058   0.218982507500002   1.0
H254   H   0.081365833738929   0.387890994416949   0.111879992500000   1.0
H255   H   0.884058105517781   0.490292165190979   0.106027507500002   1.0
H256   H   0.007593179875478   0.286640651176263   0.119097494999998   1.0
H257   H   0.731229690919633   0.499668188016109   0.179005002499999   1.0
H258   H   0.814030678250170   0.439599865141609   0.152467489999999   1.0
H259   H   0.715301724623949   0.571872862059614   0.131647492500001   1.0
H260   H   0.141118905221830   0.278740253554695   0.111744999999999   1.0
H261   H   0.721925301173776   0.652112049378623   0.248509980000001   1.0
H262   H   0.599982616576057   0.696894943733234   0.236097479999998   1.0
H263   H   0.685440951136179   0.769968065351406   0.261817502500001   1.0
H264   H   0.935358248586056   0.172201710875470   0.313532494999997   1.0
H265   H   0.111045242746037   0.499322237971732   0.019654989999999   1.0
H266   H   0.184746986180613   0.582646685448744   0.998797490000001   1.0
H267   H   0.055179534119510   0.593046416816414   0.003684997500002   1.0
H268   H   0.725883574459019   0.533310036539596   0.067840005000001   1.0
H269   H   0.819022013899392   0.560738947035524   0.035485004999998   1.0
H270   H   0.732081231101560   0.731737041224967   0.035717512500000   1.0
H271   H   0.349560737766829   0.900596013326755   0.072705010000000   1.0
H272   H   0.925596509046393   0.574026252821547   0.196692515000002   1.0
H273   H   0.373799417365916   0.860310582512305   0.032235002500002   1.0
H274   H   0.470099793280291   0.937662202473163   0.053572512499997   1.0
H275   H   0.948455467091563   0.596541190044292   0.126572490000001   1.0
H276   H   0.833057397958960   0.704089306735668   0.094519997500001   1.0
H277   H   0.662676897785985   0.619049116483474   0.023212504999997   1.0
H278   H   0.806508329952869   0.933517819784413   0.188397502500003   1.0
H279   H   0.829879683461144   0.011045443595400   0.437162495000003   1.0
H280   H   0.115626523247556   0.772996893290937   0.457515002500003   1.0
H281   H   0.071611995038779   0.767758249431211   0.417780017500000   1.0
H282   H   0.641505384012106   0.327865082193810   0.348960020000000   1.0
H283   H   0.739635159101695   0.253076373124969   0.366672517500000   1.0
H284   H   0.875739262707853   0.162140918768621   0.547147514999999   1.0
H285   H   0.874588129315072   0.055221146200701   0.524219989999999   1.0
H286   H   0.157748540185857   0.604123913742455   0.488815022499999   1.0
H287   H   0.036681153484089   0.643519758728509   0.504792500000001   1.0
H288   H   0.338876468765669   0.161173642444545   0.549154999999999   1.0
H289   H   0.145447816192977   0.720991493956816   0.104555009999999   1.0
H290   H   0.232301823802352   0.806956408677621   0.100342487500001   1.0
H291   H   0.640377866402105   0.401418403654184   0.524312494999997   1.0
H292   H   0.561605976049918   0.596421201860529   0.317622520000001   1.0
H293   H   0.380131080762460   0.953709956626547   0.462340022500001   1.0
H294   H   0.499314006849573   0.992385625402875   0.445585012499997   1.0
H295   H   0.240904458144101   0.176840300853129   0.356247519999997   1.0
H296   H   0.166737464076213   0.136696003536372   0.323422479999998   1.0
H297   H   0.134708359591272   0.645757850769677   0.245672512500001   1.0
H298   H   0.087397911809695   0.712766291604808   0.275727510000003   1.0
H299   H   0.411726672018318   0.090395179229908   0.154502487499997   1.0
H300   H   0.436533100267504   0.000426881174143   0.125112510000001   1.0
H301   H   0.798434034684497   0.267500364853746   0.033835005000000   1.0
H302   H   0.655225388951941   0.542558940373937   0.346645025000001   1.0
H303   H   0.261579062731137   0.426164295050853   0.278744985000003   1.0
H304   H   0.387819015516605   0.107438499948749   0.512217522500002   1.0
H305   H   0.123519438265134   0.610209725719017   0.319005012500000   1.0
H306   H   0.710909867143990   0.066637589447765   0.445277500000003   1.0
H307   H   0.341683608658144   0.505076241494507   0.078294992499998   1.0
H308   H   0.876756389346625   0.354432690042522   0.056727504999998   1.0
H309   H   0.895081361536377   0.891678917946209   0.075734997500000   1.0
H310   H   0.766546829908002   0.858524145904589   0.081165005000003   1.0
H311   H   0.504462957150501   0.097370577034859   0.249992515000002   1.0
H312   H   0.556725181188249   0.034167706711344   0.282942485000000   1.0
H313   H   0.859235883474632   0.845236981322657   0.335594987500002   1.0
H314   H   0.922702743781784   0.776202268716389   0.304794979999997   1.0
H315   H   0.283255157864374   0.258251461019405   0.257802487500001   1.0
H316   H   0.397730539834086   0.426736206955845   0.296740010000001   1.0
H317   H   0.287292376464187   0.411267368430806   0.094067502500003   1.0
H318   H   0.894734394828731   0.014264960611435   0.173437499999999   1.0
H319   H   0.166154008367918   0.368877827085228   0.166727495000004   1.0
H320   H   0.094691656175712   0.253485879134644   0.173282479999997   1.0
H321   H   0.818848455637408   0.782930686430475   0.217112495000002   1.0
H322   H   0.688137692172347   0.805445757797109   0.197599984999997   1.0
H323   H   0.149169584707430   0.699796659742184   0.042752505000003   1.0
H324   H   0.204814519276575   0.595446921813107   0.060902499999997   1.0
H325   H   0.412814787936661   0.731482930327068   0.071022509999999   1.0
H326   H   0.490585187742631   0.803807719638016   0.098472500000000   1.0
H327   H   0.273958739923650   0.135693440307769   0.261969995000001   1.0
O328   O   0.470872514308759   0.485540731957009   0.364624977500000   1.0
O329   O   0.458737384657795   0.561889774568854   0.480434989999999   1.0
O330   O   0.223935828277568   0.181132947846613   0.488044977500003   1.0
O331   O   0.075546660426319   0.512906072367230   0.444287492500003   1.0
O332   O   0.082461842611714   0.523298672927865   0.171207525000000   1.0
O333   O   0.818793260151793   0.431177111193861   0.363382482500000   1.0
O334   O   0.876795940854599   0.750905603668457   0.405102492499999   1.0
O335   O   0.321828956665122   0.795406111004198   0.440257502500003   1.0
O336   O   0.038628781389498   0.604794668517272   0.067129995000002   1.0
O337   O   0.840406337810599   0.332680219657377   0.518717479999999   1.0
O338   O   0.371378653757823   0.069482739094354   0.316962480000001   1.0
O339   O   0.716476615730748   0.365714869371345   0.098289989999998   1.0
O340   O   0.184407912427410   0.870674765747872   0.290372515000001   1.0
O341   O   0.297511323866402   0.604978212666325   0.125687505000002   1.0
O342   O   0.247433287700332   0.508126221808183   0.216064977499997   1.0
O343   O   0.406104578129629   0.277250479700335   0.123617504999999   1.0
O344   O   0.639494738632266   0.962937588063262   0.119659997500001   1.0
O345   O   0.720687250661292   0.945209505122911   0.256414984999999   1.0
O346   O   0.866852828949206   0.020259067585414   0.327847480000003   1.0
O347   O   0.135764966772399   0.279926367992552   0.293085002500000   1.0
O348   O   0.930367062753149   0.580408593407576   0.275162504999997   1.0
O349   O   0.840177584062999   0.745864504344276   0.151832485000000   1.0
O350   O   0.949614564404406   0.735620175148576   0.048005009999997   1.0
O351   O   0.758078344251501   0.938078578062289   0.498642494999999   1.0
O352   O   0.418555094785397   0.905340449897587   0.414752485000001   1.0
O353   O   0.347628903655384   0.954084048648006   0.164069987500000   1.0
O354   O   0.489150113001720   0.973485449591770   0.201252507500001   1.0
O355   O   0.549723208044263   0.635937169174241   0.365360022499999   1.0
O356   O   0.528851437297540   0.423735648077077   0.489134980000003   1.0
O357   O   0.374785114118161   0.246990427004519   0.510519982500000   1.0
O358   O   0.736142065484145   0.675594404129534   0.188927507499997   1.0
O359   O   0.880509816414609   0.186872809778798   0.494439985000000   1.0
O360   O   0.702496427156788   0.365848992085489   0.396857500000003   1.0
O361   O   0.230172823531220   0.025434155479850   0.347510004999997   1.0
O362   O   0.953612231496237   0.741635561580388   0.453630017499996   1.0
O363   O   0.059587327324671   0.490708816128098   0.501574992499997   1.0
O364   O   0.562355097065755   0.623129936146732   0.084584999999997   1.0
O365   O   0.222894943924778   0.761043959187298   0.250804997499998   1.0
O366   O   0.242363148667792   0.751357400306006   0.146432494999999   1.0
O367   O   0.391469865717113   0.447055462788775   0.245219994999999   1.0
O368   O   0.447122622275074   0.422090613254845   0.103007507500003   1.0
O369   O   0.826914936802034   0.240375113774320   0.085640002500000   1.0
O370   O   0.660185137013251   0.100434691878924   0.247017479999997   1.0
O371   O   0.968388914582825   0.906992495503374   0.302742482500001   1.0
O372   O   0.140890222439857   0.205801275831284   0.242452479999997   1.0
O373   O   0.059200966810437   0.488428299315160   0.300227499999998   1.0
O374   O   0.011275467847582   0.375987481748226   0.175637482500001   1.0
O375   O   0.710531320733509   0.912697084651441   0.445055007500002   1.0
O376   O   0.815639311253065   0.968663442548753   0.112260007499998   1.0
O377   O   0.562780867156718   0.758834143267109   0.055627489999999   1.0


# Number_of_total_atoms: 377
# Number_of_atom_type: 3
# Name_of_each_atom: C H O
# Number_of_each_atom: 125 202 50
# Created_by: Lihua Chen (lihua.chen@mse.gatech.edu)
# Tool: VASP
# K-points: 1 1 1
# Pseudopotential: PBE-HSE06
# Material_class: MC_Pol
# Geometry_class: GC_PD
# Bandgap_(eV): 5.62
