#======================================================================

# Note: Disordered slab of syndiotactic polyvinyl chloride
# Common_name: Disordered slab-1

#----------------------------------------------------------------------

data_1
_audit_creation_method   'vasp2cif'
_cell_length_a    10.7488613
_cell_length_b    14.5479012
_cell_length_c    45.0
_cell_angle_alpha    90.0
_cell_angle_beta    90.0
_cell_angle_gamma    90.0

_symmetry_space_group_name_H-M    'P 1'
loop_
_atom_site_label
_atom_site_type_symbol
_atom_site_fract_x
_atom_site_fract_y
_atom_site_fract_z
_atom_site_occupancy
C1   C   0.421038319659033   0.043174708940143   0.366311137777778   1.0
C2   C   0.434537386764866   0.015376891616505   0.310257808888892   1.0
C3   C   0.442379994241811   0.939812699580337   0.256573317777779   1.0
C4   C   0.469257297049687   0.895407668839546   0.200446657777775   1.0
C5   C   0.637749563295600   0.786711398617420   0.175393337777777   1.0
C6   C   0.521597827297299   0.638573329051752   0.192251122222224   1.0
C7   C   0.571444874816649   0.528069341026317   0.232464431111112   1.0
C8   C   0.580915729185193   0.379814326756630   0.262071102222222   1.0
C9   C   0.659593765527518   0.398504321709304   0.316900042222223   1.0
C10   C   0.687708399400407   0.389011564087333   0.375786675555553   1.0
C11   C   0.721674694974432   0.372816822539321   0.431555515555559   1.0
C12   C   0.554931525630536   0.261804128831997   0.458664448888889   1.0
C13   C   0.311296481237505   0.283126771578573   0.450308906666663   1.0
C14   C   0.189599711366633   0.452175280101571   0.451651086666665   1.0
C15   C   0.182091957963955   0.586455742495694   0.414459991111109   1.0
C16   C   0.188483397771634   0.535451780494633   0.361102211111110   1.0
C17   C   0.195070216414457   0.481664124856721   0.303244442222223   1.0
C18   C   0.149270016164408   0.435788070928062   0.248164453333331   1.0
C19   C   0.160992132254975   0.372741038411782   0.195468902222224   1.0
C20   C   0.147567417210972   0.309130501931094   0.142753346666666   1.0
C21   C   0.367162873336177   0.287670457921450   0.116775555555556   1.0
C22   C   0.559936753486625   0.223310768703875   0.141291131111110   1.0
C23   C   0.750719855320860   0.159370102128548   0.172699993333332   1.0
C24   C   0.885971409827384   0.122100251821891   0.222162204444445   1.0
C25   C   0.018995658637813   0.066566509263893   0.266117773333335   1.0
C26   C   0.961420983262663   0.102186753921593   0.322280035555558   1.0
C27   C   0.979115964590591   0.131077491782804   0.382093302222223   1.0
C28   C   0.962044537685124   0.109720493565078   0.439191097777780   1.0
C29   C   0.935250806520315   0.089793096752679   0.493222215555555   1.0
C30   C   0.882138213096120   0.052942530294338   0.550297802222225   1.0
C31   C   0.849232522890588   0.039325370177799   0.605055575555554   1.0
C32   C   0.772638418917921   0.884093301376012   0.629548900000003   1.0
C33   C   0.568151465495234   0.821665107266469   0.609646691111109   1.0
C34   C   0.386002022372359   0.919149787737076   0.587917753333336   1.0
C35   C   0.348370036182345   0.090267446963416   0.592851088888892   1.0
C36   C   0.250331874688904   0.253500525560348   0.577077737777778   1.0
C37   C   0.119117938567129   0.406587927611163   0.565393322222221   1.0
C38   C   0.888799560563683   0.446387379919791   0.561544460000000   1.0
C39   C   0.859652184738863   0.561105185399526   0.518828922222220   1.0
C40   C   0.015683614784386   0.691660079462181   0.503522237777780   1.0
C41   C   0.188176416417242   0.813003830408199   0.484740024444441   1.0
C42   C   0.399110359717824   0.905952179548756   0.470017751111108   1.0
C43   C   0.615821780117301   0.811794226372669   0.461426628888887   1.0
C44   C   0.665296723104987   0.719409642402574   0.416286637777780   1.0
C45   C   0.764507101789469   0.752225496279834   0.364944457777774   1.0
C46   C   0.883487165286986   0.757538785044815   0.313166639999999   1.0
C47   C   0.958825294359322   0.765512519427887   0.257722219999998   1.0
C48   C   0.035257930065576   0.736498024883481   0.201740011111113   1.0
C49   C   0.099394928465585   0.702135618023028   0.146906662222222   1.0
C50   C   0.500842075243824   0.047876507437373   0.338453335555556   1.0
C51   C   0.513866654879990   0.993621059235679   0.283093346666668   1.0
C52   C   0.521858320006416   0.934595376548202   0.228824446666664   1.0
C53   C   0.563118364919269   0.876889430621098   0.175624426666666   1.0
C54   C   0.562895141274176   0.700087446290880   0.167368911111112   1.0
C55   C   0.633842191265416   0.586160222204427   0.207086648888890   1.0
C56   C   0.656086352142246   0.453062095307601   0.243324448888892   1.0
C57   C   0.652086002821527   0.340035317259371   0.287422182222222   1.0
C58   C   0.690638933074709   0.342063307386226   0.344982233333333   1.0
C59   C   0.706314919144042   0.322486490353675   0.402202182222226   1.0
C60   C   0.684284743724433   0.314052304671961   0.460477786666665   1.0
C61   C   0.438723886036186   0.324816812750967   0.462744479999998   1.0
C62   C   0.198214744849295   0.342509859772761   0.457473331111110   1.0
C63   C   0.210895083370367   0.486159563690194   0.420575546666669   1.0
C64   C   0.214309333398880   0.617126929621989   0.381888920000002   1.0
C65   C   0.211434694017306   0.561709856814261   0.326675584444445   1.0
C66   C   0.216346767819957   0.503488393226100   0.270659977777775   1.0
C67   C   0.188427503478906   0.457488830072613   0.215666664444441   1.0
C68   C   0.209248378709660   0.382006979810946   0.163991122222221   1.0
C69   C   0.221603268803925   0.290529928811999   0.113271120000000   1.0
C70   C   0.420908073304474   0.212230029442324   0.135891131111109   1.0
C71   C   0.611337528376147   0.149279230738799   0.161253315555555   1.0
C72   C   0.758543828265793   0.127530492164738   0.207135559999998   1.0
C73   C   0.886268818074711   0.082355590921942   0.253348879999997   1.0
C74   C   0.007868870724010   0.034286883938968   0.298633322222223   1.0
C75   C   0.011367055224724   0.070745703167134   0.355026671111112   1.0
C76   C   0.047035940448872   0.091504587617081   0.411717817777777   1.0
C77   C   0.015376633430002   0.066944350708127   0.466017746666665   1.0
C78   C   0.957960421351792   0.031056115503453   0.521433344444446   1.0
C79   C   0.926412902918379   0.005107451513346   0.577911122222226   1.0
C80   C   0.865159772784487   0.972250168979699   0.631288911111113   1.0
C81   C   0.641936053263613   0.910605730536581   0.619302200000000   1.0
C82   C   0.429997417493887   0.833192392040715   0.604455566666665   1.0
C83   C   0.337885251156791   0.997209233177912   0.609211137777777   1.0
C84   C   0.239502839244935   0.159789385976857   0.596322208888886   1.0
C85   C   0.137808206716741   0.317983978334965   0.583066644444443   1.0
C86   C   0.009962208741122   0.460107585828254   0.577311115555553   1.0
C87   C   0.856861303066587   0.461867324202068   0.529177773333330   1.0
C88   C   0.000444856424004   0.589947675751333   0.512751091111113   1.0
C89   C   0.151809810775028   0.713828108758399   0.494835577777778   1.0
C90   C   0.333987108011151   0.818447969663140   0.481000011111114   1.0
C91   C   0.541618413105766   0.896617272875076   0.474651082222223   1.0
C92   C   0.613737670984740   0.808240407901586   0.427442253333332   1.0
C93   C   0.657333098158034   0.702946917181428   0.383893331111111   1.0
C94   C   0.800036521077821   0.704259835088791   0.335011122222220   1.0
C95   C   0.915137243421313   0.706445669290083   0.285300022222224   1.0
C96   C   0.980418418832883   0.700836599027767   0.230448871111108   1.0
C97   C   0.020828503945808   0.671725870670606   0.174537786666669   1.0
C98   C   0.178045110694654   0.661105843913759   0.095286686666668   1.0
C99   C   0.074787698674648   0.647949141969704   0.118677775555554   1.0
C100   C   0.498646531051619   0.066862015807473   0.393171100000003   1.0
Cl101   Cl   0.359720243110772   0.925858858596044   0.373975542222219   1.0
Cl102   Cl   0.318841336244610   0.100956170914884   0.297546642222223   1.0
Cl103   Cl   0.420898667657013   0.827418383897189   0.271691131111112   1.0
Cl104   Cl   0.345300036572247   0.966242525760350   0.187008880000000   1.0
Cl105   Cl   0.745928445462404   0.802356273907058   0.146702237777781   1.0
Cl106   Cl   0.422219756431318   0.553667686442630   0.175448906666666   1.0
Cl107   Cl   0.528538115939782   0.610156948275126   0.261997775555557   1.0
Cl108   Cl   0.521486029408528   0.290749926181789   0.240266673333330   1.0
Cl109   Cl   0.782509055168475   0.483760550972122   0.310477786666667   1.0
Cl110   Cl   0.533701453566991   0.441912658851436   0.378606668888892   1.0
Cl111   Cl   0.877672595886970   0.401563079078379   0.434008873333333   1.0
Cl112   Cl   0.554568640680110   0.184356696071049   0.488588884444447   1.0
Cl113   Cl   0.309900863638461   0.255074608287828   0.412191095555556   1.0
Cl114   Cl   0.304188677176434   0.503529821882488   0.476704406666670   1.0
Cl115   Cl   0.025842969989760   0.617889967523290   0.424708895555554   1.0
Cl116   Cl   0.026847671762219   0.507117995824714   0.361500040000003   1.0
Cl117   Cl   0.297043790117563   0.397370233721411   0.314437782222221   1.0
Cl118   Cl   0.985181797815180   0.454354302323694   0.251322217777776   1.0
Cl119   Cl   0.246005723415557   0.272231681089501   0.209957760000002   1.0
Cl120   Cl   0.984396589060090   0.344537836151929   0.135006671111114   1.0
Cl121   Cl   0.435337490120929   0.272754285683490   0.080128904444443   1.0
Cl122   Cl   0.596107998900308   0.329456464826691   0.160837766666667   1.0
Cl123   Cl   0.837761307795461   0.074210106678478   0.153126653333331   1.0
Cl124   Cl   0.929612981423439   0.241409468741786   0.226317766666668   1.0
Cl125   Cl   0.100455524530773   0.978532869057425   0.244108879999999   1.0
Cl126   Cl   0.799245823369219   0.115920597536089   0.323493364444445   1.0
Cl127   Cl   0.039537406627439   0.247905354210133   0.378648884444445   1.0
Cl128   Cl   0.823825012980677   0.052997328576851   0.431768884444445   1.0
Cl129   Cl   0.976232096324473   0.208222578525621   0.500886706666670   1.0
Cl130   Cl   0.731564151823228   0.012874819358821   0.544299995555555   1.0
Cl131   Cl   0.906940989181805   0.150207213395156   0.617044406666665   1.0
Cl132   Cl   0.776843543417947   0.826854879932782   0.663844471111112   1.0
Cl133   Cl   0.638521812538414   0.786601533972473   0.574048868888887   1.0
Cl134   Cl   0.265626518038708   0.899511360442837   0.562937757777775   1.0
Cl135   Cl   0.491082864749586   0.155424536427290   0.601864455555557   1.0
Cl136   Cl   0.242191328675901   0.223668167336740   0.537771097777778   1.0
Cl137   Cl   0.254341629657084   0.472741690052167   0.571831088888892   1.0
Cl138   Cl   0.773736097980908   0.513221865982977   0.582622188888891   1.0
Cl139   Cl   0.775038552223201   0.581066669603175   0.485915546666668   1.0
Cl140   Cl   0.986456211878000   0.766756733266789   0.534735531111110   1.0
Cl141   Cl   0.109135504427805   0.833199204019891   0.449133300000000   1.0
Cl142   Cl   0.339745959881348   0.002343953229484   0.490775553333336   1.0
Cl143   Cl   0.770935633898262   0.837364773964786   0.472300042222223   1.0
Cl144   Cl   0.577324567393944   0.626935911552657   0.431533304444443   1.0
Cl145   Cl   0.741872369308552   0.874854896594982   0.360206688888887   1.0
Cl146   Cl   0.035611400065235   0.783797129444352   0.328966693333335   1.0
Cl147   Cl   0.833360999829814   0.842685142788845   0.250488875555554   1.0
Cl148   Cl   0.201442854230521   0.754686401087191   0.209602228888890   1.0
Cl149   Cl   0.061390837743900   0.817045898002114   0.139619997777778   1.0
Cl150   Cl   0.314217609264340   0.603881067050416   0.107128906666666   1.0
H151   H   0.575715122493953   0.015321825254077   0.397319964444442   1.0
H152   H   0.538083145607246   0.134177416602199   0.393331146666668   1.0
H153   H   0.334582622254139   0.080554691971649   0.363608891111113   1.0
H154   H   0.581278428069396   0.009726385823953   0.341122182222222   1.0
H155   H   0.525123689148359   0.123227514082927   0.333437771111115   1.0
H156   H   0.381871240630858   0.949442851591542   0.315228864444442   1.0
H157   H   0.598238419915234   0.948164289155329   0.288980017777774   1.0
H158   H   0.553359340491255   0.059108278794191   0.273942226666669   1.0
H159   H   0.347262951471890   0.968449077726760   0.254377788888888   1.0
H160   H   0.613867917339299   0.905319710309826   0.234146668888890   1.0
H161   H   0.545804903073780   0.005361797480454   0.224466662222220   1.0
H162   H   0.426350538172819   0.826373456536807   0.204268900000002   1.0
H163   H   0.634223701444540   0.934361741472372   0.173642222222220   1.0
H164   H   0.511196613914812   0.885722457339760   0.153679995555557   1.0
H165   H   0.688713101172866   0.773101325433800   0.197684435555559   1.0
H166   H   0.622585156997047   0.657070856378922   0.151746666666668   1.0
H167   H   0.484710050170619   0.725816112911190   0.154368888888889   1.0
H168   H   0.464187122779229   0.673678069796075   0.209966659999999   1.0
H169   H   0.703635649294313   0.633088029220325   0.216157786666663   1.0
H170   H   0.683363799661272   0.540792867083809   0.191786659999998   1.0
H171   H   0.488329075378431   0.490290785037779   0.223777771111109   1.0
H172   H   0.737881248872384   0.484221263476826   0.254255548888892   1.0
H173   H   0.701933050340877   0.421717278365897   0.223844444444445   1.0
H174   H   0.493604024828194   0.412416988369429   0.270442199999998   1.0
H175   H   0.748933321895223   0.325332330412032   0.282382202222223   1.0
H176   H   0.612351635796067   0.274829994033780   0.293993293333337   1.0
H177   H   0.572226343640700   0.437197222648173   0.320508915555557   1.0
H178   H   0.778313159553001   0.304614352206350   0.343502215555553   1.0
H179   H   0.618603432905026   0.289849473269726   0.347480011111109   1.0
H180   H   0.755585440478242   0.442352660464863   0.378524442222222   1.0
H181   H   0.786983910565482   0.274658230425707   0.400586699999998   1.0
H182   H   0.621506103162758   0.279854835692724   0.403286657777777   1.0
H183   H   0.662366189430692   0.436220992482404   0.432873366666669   1.0
H184   H   0.672683468340971   0.354126827586647   0.480899979999997   1.0
H185   H   0.749873086556619   0.258181606292460   0.462951151111113   1.0
H186   H   0.541860448045782   0.227187376004451   0.438364411111110   1.0
H187   H   0.455702335651125   0.391486099726883   0.452102237777780   1.0
H188   H   0.428229695363172   0.350243140226993   0.485906644444441   1.0
H189   H   0.303732824238786   0.214147879970483   0.462266626666668   1.0
H190   H   0.174388816422813   0.338007602086272   0.480335575555557   1.0
H191   H   0.120736779811274   0.314884053515570   0.444651115555558   1.0
H192   H   0.100883346592255   0.482646912669438   0.458902233333333   1.0
H193   H   0.147595271324228   0.448786399511704   0.406057740000001   1.0
H194   H   0.305230648012923   0.474948248892424   0.413277775555557   1.0
H195   H   0.242749583158172   0.626269093716417   0.428953297777781   1.0
H196   H   0.313315290429877   0.631149460927048   0.380655584444448   1.0
H197   H   0.165048385171737   0.679032794091285   0.374111091111111   1.0
H198   H   0.233539388958342   0.471779365672347   0.367397817777778   1.0
H199   H   0.312049919185391   0.578104146046854   0.327226682222225   1.0
H200   H   0.146404605667392   0.621189440027266   0.322780015555559   1.0
H201   H   0.104809353154458   0.448064776519104   0.306962246666664   1.0
H202   H   0.315352734154267   0.500017177735579   0.266513315555557   1.0
H203   H   0.197423870377783   0.575217145412012   0.263766648888890   1.0
H204   H   0.161280488380662   0.362492316073741   0.252424453333333   1.0
H205   H   0.286754197860937   0.468789305497893   0.215257773333335   1.0
H206   H   0.145297520956937   0.515964646501722   0.204748875555552   1.0
H207   H   0.058888312197311   0.357694276889923   0.196819986666668   1.0
H208   H   0.311817466655747   0.361021279138193   0.164111115555556   1.0
H209   H   0.203378082476512   0.450126847163354   0.153291111111109   1.0
H210   H   0.131416934368666   0.242385698907547   0.154542204444446   1.0
H211   H   0.202940678004659   0.349871842682020   0.099293348888892   1.0
H212   H   0.197005267897538   0.215955604647632   0.105853313333334   1.0
H213   H   0.397389302995286   0.356291944022828   0.123551093333333   1.0
H214   H   0.415223750259017   0.148021379193857   0.124651124444448   1.0
H215   H   0.372614567089073   0.200118268606332   0.157291115555559   1.0
H216   H   0.604406459314902   0.218086633692565   0.119271131111112   1.0
H217   H   0.587790894650396   0.075557373183152   0.155819997777776   1.0
H218   H   0.554084924325892   0.164965541558665   0.181128904444442   1.0
H219   H   0.791635491659008   0.227496788333980   0.169042206666667   1.0
H220   H   0.724884346586556   0.055568359235217   0.206046677777778   1.0
H221   H   0.694881149875847   0.168312993492144   0.220657773333336   1.0
H222   H   0.959560283841412   0.090425565991609   0.209300020000001   1.0
H223   H   0.836412355604587   0.019508106090242   0.254188877777778   1.0
H224   H   0.827444205648092   0.125646990233889   0.267044406666663   1.0
H225   H   0.077764720994210   0.131847362284809   0.266686673333332   1.0
H226   H   0.096920257032252   0.009265941399164   0.304900022222221   1.0
H227   H   0.942330570401907   0.975707753638027   0.301153311111108   1.0
H228   H   0.998426047231625   0.169736044124356   0.314699977777778   1.0
H229   H   0.112698626039581   0.060531068220342   0.355022262222221   1.0
H230   H   0.966171402732677   0.002371482973778   0.359171126666666   1.0
H231   H   0.877849330886797   0.139978940742324   0.384813351111113   1.0
H232   H   0.141427231924560   0.116511631244791   0.413988920000001   1.0
H233   H   0.054506443394146   0.019734929186896   0.410453373333333   1.0
H234   H   0.937362779069446   0.184411501227409   0.442080013333332   1.0
H235   H   0.115731542651872   0.095127103282778   0.468462202222220   1.0
H236   H   0.023144888845110   0.989496663614958   0.460751088888891   1.0
H237   H   0.841324792236364   0.087889145136621   0.487842222222220   1.0
H238   H   0.060376730323981   0.038108686083184   0.527195571111108   1.0
H239   H   0.947084720499646   0.954969325747136   0.517368911111113   1.0
H240   H   0.869104404575396   0.125193350914429   0.552226684444442   1.0
H241   H   0.028317632119787   0.021700759144558   0.579562208888888   1.0
H242   H   0.913667273760431   0.928622088799997   0.573828888888890   1.0
H243   H   0.748654380720311   0.057431143400947   0.600559997777779   1.0
H244   H   0.849985960838474   0.006784586906598   0.654113346666669   1.0
H245   H   0.965021373938463   0.947257017390250   0.629768880000000   1.0
H246   H   0.810502671571356   0.842650794191535   0.611264462222223   1.0
H247   H   0.648587995083723   0.953711481076049   0.599160004444443   1.0
H248   H   0.592982095694175   0.950329666797572   0.636717817777779   1.0
H249   H   0.588181633714072   0.764495121811798   0.625511084444447   1.0
H250   H   0.389546518755431   0.828614357100527   0.627244484444446   1.0
H251   H   0.397659024588961   0.767045434705039   0.591675568888888   1.0
H252   H   0.461721670927133   0.941159966085003   0.573022206666664   1.0
H253   H   0.407539243249886   0.998611566045007   0.627417755555555   1.0
H254   H   0.239558556774753   0.985138887250621   0.614051142222223   1.0
H255   H   0.357031558310275   0.080616577187094   0.567711131111110   1.0
H256   H   0.223808041880680   0.177221529384596   0.620297751111110   1.0
H257   H   0.143827551296063   0.128905288413698   0.590140024444445   1.0
H258   H   0.339866800588446   0.291107324814661   0.579744466666668   1.0
H259   H   0.135463781637966   0.329875748675008   0.608020019999998   1.0
H260   H   0.056050765116858   0.275139399489461   0.580153317777778   1.0
H261   H   0.106018830106216   0.384481776656550   0.541035546666663   1.0
H262   H   0.031955115096700   0.535541195454364   0.576826648888890   1.0
H263   H   0.005384970406119   0.442077589858805   0.600582206666665   1.0
H264   H   0.865541282963619   0.373992071103700   0.565991126666667   1.0
H265   H   0.761483767587549   0.433368340444872   0.524342262222220   1.0
H266   H   0.918811800092719   0.418108393532393   0.514037746666666   1.0
H267   H   0.809972466571878   0.606644297254370   0.535962253333331   1.0
H268   H   0.011422772754543   0.552382298279561   0.491211106666668   1.0
H269   H   0.065642460192507   0.569367360014787   0.531004417777780   1.0
H270   H   0.948647676754376   0.715134207812739   0.486275568888885   1.0
H271   H   0.176770501262304   0.664480832465372   0.477477773333334   1.0
H272   H   0.208504160343011   0.694017663523866   0.514546626666665   1.0
H273   H   0.156368405274705   0.864956492830736   0.499495528888886   1.0
H274   H   0.362966968417389   0.767629656434565   0.466542222222223   1.0
H275   H   0.369386290248251   0.794114555850847   0.503500026666664   1.0
H276   H   0.369497892767491   0.913664481031809   0.446135542222223   1.0
H277   H   0.553898783678605   0.895840590393888   0.498142242222222   1.0
H278   H   0.580776077183174   0.958206906161834   0.467100015555559   1.0
H279   H   0.584534577630095   0.745502794588681   0.470679982222222   1.0
H280   H   0.663631383912268   0.870469329280297   0.418880039999998   1.0
H281   H   0.519299890863792   0.812646431775327   0.418073357777779   1.0
H282   H   0.765986300334902   0.711099220277902   0.424575551111111   1.0
H283   H   0.558634289941018   0.715305957673124   0.373844486666670   1.0
H284   H   0.683763767609506   0.628599409239868   0.380084482222223   1.0
H285   H   0.851065182132359   0.746403240626904   0.378086684444447   1.0
H286   H   0.712603976013717   0.690292095192397   0.323519982222223   1.0
H287   H   0.835249739430537   0.635672436378655   0.341162193333332   1.0
H288   H   0.837268371860006   0.822950488555698   0.306891124444448   1.0
H289   H   0.831407304511409   0.672385869653830   0.278926679999998   1.0
H290   H   0.980502176542181   0.649379004581085   0.289091153333331   1.0
H291   H   0.049622223704759   0.803758606774153   0.260757786666666   1.0
H292   H   0.893906827135261   0.661428893949321   0.226911122222219   1.0
H293   H   0.041649202413652   0.647550569012665   0.238955562222223   1.0
H294   H   0.998001602272048   0.810096380088147   0.195591100000001   1.0
H295   H   0.921389040530272   0.666845496586134   0.169457795555559   1.0
H296   H   0.052468999669763   0.597027776075358   0.180757777777778   1.0
H297   H   0.201266119230695   0.698279467281509   0.152320013333331   1.0
H298   H   0.978911189411292   0.667787116948524   0.111862224444444   1.0
H299   H   0.071615130060337   0.575189615667725   0.124762217777779   1.0
H300   H   0.193218736574451   0.737171654698891   0.091835573333334   1.0
H301   H   0.432844193458891   0.060194387352588   0.412455580000000   1.0
H302   H   0.151074821292930   0.631864526272700   0.073744455555556   1.0


# Number_of_total_atoms: 302
# Number_of_atom_type: 3
# Name_of_each_atom: C Cl H
# Number_of_each_atom: 100 50 152
# Created_by: Lihua Chen (lihua.chen@mse.gatech.edu)
# Tool: VASP
# K-points: 2 1 1
# Pseudopotential: PBE-HSE06
# Material_class: MC_Pol
# Geometry_class: GC_PD
# Bandgap_(eV): 6.03
