#======================================================================

# Note: Disordered slab of syndiotactic polyvinyl chloride
# Common_name: Disordered slab-2

#----------------------------------------------------------------------

data_1
_audit_creation_method   'vasp2cif'
_cell_length_a    10.9189167023
_cell_length_b    14.0970077515
_cell_length_c    45.0
_cell_angle_alpha    90.0
_cell_angle_beta    90.0
_cell_angle_gamma    90.0

_symmetry_space_group_name_H-M    'P 1'
loop_
_atom_site_label
_atom_site_type_symbol
_atom_site_fract_x
_atom_site_fract_y
_atom_site_fract_z
_atom_site_occupancy
C1   C   0.394508701590574   0.007771457598039   0.369875589999999   1.0
C2   C   0.388445805535504   0.956703196291066   0.314297739666664   1.0
C3   C   0.386769897338844   0.911062426537534   0.257751125755554   1.0
C4   C   0.411863977133621   0.890511997743936   0.199591149222222   1.0
C5   C   0.581038130336097   0.786056946859588   0.170837783822222   1.0
C6   C   0.461053823859615   0.642047806921077   0.187622197466666   1.0
C7   C   0.532214593850313   0.539437459001952   0.230757819288890   1.0
C8   C   0.546620828121419   0.394874664618648   0.263464440244448   1.0
C9   C   0.651136653281952   0.403472273709632   0.314542219377778   1.0
C10   C   0.680636062589848   0.390817238318803   0.374722205266664   1.0
C11   C   0.705812374443397   0.370529294732364   0.429719967311108   1.0
C12   C   0.566750986084223   0.255845167256595   0.458475579155554   1.0
C13   C   0.333797640587576   0.291923897648573   0.458473375111112   1.0
C14   C   0.209554388991542   0.459526671488902   0.455902184377777   1.0
C15   C   0.192437380949833   0.569897652439408   0.410031127933337   1.0
C16   C   0.169028456606071   0.501656363014163   0.356264411088887   1.0
C17   C   0.156518023682700   0.438777619835093   0.299959988066668   1.0
C18   C   0.122595292600593   0.404082484199094   0.243615553111113   1.0
C19   C   0.130260904701324   0.334755534237246   0.190124469333334   1.0
C20   C   0.120617008161858   0.288320273113811   0.132826656755554   1.0
C21   C   0.338944673899789   0.281574132040724   0.105017768022222   1.0
C22   C   0.519695022749346   0.199861667572698   0.131557761288889   1.0
C23   C   0.710565672358840   0.125853000883197   0.161955600311110   1.0
C24   C   0.842840889889878   0.139118272158953   0.209462229400003   1.0
C25   C   0.994156156417368   0.082624127086547   0.253922271733330   1.0
C26   C   0.962000867429218   0.099727069444960   0.311791144466667   1.0
C27   C   0.966625773395336   0.108431025643533   0.368560028066668   1.0
C28   C   0.966195354597559   0.111225816828622   0.425057813866665   1.0
C29   C   0.962706237220928   0.091384909954591   0.481204477955558   1.0
C30   C   0.938601037577399   0.090342004732491   0.538644409177778   1.0
C31   C   0.932968560411688   0.099776589883078   0.595653364400000   1.0
C32   C   0.861359029876915   0.930726088279542   0.617973327644442   1.0
C33   C   0.634294377805915   0.862498870209265   0.609073299822221   1.0
C34   C   0.463526461094247   0.969237813219344   0.581495581733336   1.0
C35   C   0.453772863562215   0.151908321733892   0.577764468733335   1.0
C36   C   0.352636476765952   0.321795528878624   0.577177768288891   1.0
C37   C   0.214463329453437   0.474941319677406   0.583804406066669   1.0
C38   C   0.971873598757711   0.466244399156309   0.591322241888889   1.0
C39   C   0.925449507263984   0.569670616244466   0.545224422888886   1.0
C40   C   0.061737672644575   0.706699813791332   0.520957777244448   1.0
C41   C   0.232633675689179   0.811062318298248   0.495808919266665   1.0
C42   C   0.438514831511760   0.904890776387823   0.481335534000003   1.0
C43   C   0.650788684788040   0.825100948586936   0.481926642533331   1.0
C44   C   0.723479153416015   0.718666975544650   0.436284467911108   1.0
C45   C   0.827271398095498   0.760654600254369   0.383102247444441   1.0
C46   C   0.899970950225317   0.775253379415723   0.325244479711110   1.0
C47   C   0.910585385261314   0.766528045630835   0.264800008133335   1.0
C48   C   0.943482727442181   0.720390718726776   0.209786690599998   1.0
C49   C   0.940945632164755   0.675643481219375   0.152331119111110   1.0
C50   C   0.467473771818845   0.984042250918385   0.340415530733331   1.0
C51   C   0.456318867690463   0.926235696551323   0.286899990511110   1.0
C52   C   0.478866943448573   0.896633856901659   0.231044472577778   1.0
C53   C   0.506845912363659   0.875012109480288   0.173346710200001   1.0
C54   C   0.523596566571086   0.696825498159690   0.162291124133333   1.0
C55   C   0.570661788150417   0.592682723545423   0.203251096933336   1.0
C56   C   0.617488698451176   0.470181407064537   0.244015545311115   1.0
C57   C   0.611957013335626   0.341643742054941   0.288093312577779   1.0
C58   C   0.676899419467418   0.341388292525266   0.343384467222222   1.0
C59   C   0.695866451055487   0.318858670948927   0.399746704111109   1.0
C60   C   0.696599115038381   0.304720999854943   0.457557762999997   1.0
C61   C   0.466933477377481   0.334691671890298   0.461448923755555   1.0
C62   C   0.225929693234164   0.355540305528081   0.467655520977779   1.0
C63   C   0.222962353901572   0.469663742881572   0.421597798666667   1.0
C64   C   0.203509834774351   0.588625026549842   0.375713348377779   1.0
C65   C   0.190404246014815   0.514765436957916   0.322955576577776   1.0
C66   C   0.170695303189504   0.474820901214855   0.267662217888891   1.0
C67   C   0.172847571920982   0.409289162899555   0.211246617644441   1.0
C68   C   0.181813698659489   0.352972279913125   0.157308917577780   1.0
C69   C   0.197108228469830   0.277778920323236   0.102535544511113   1.0
C70   C   0.379589729091620   0.196144660181929   0.125008900955557   1.0
C71   C   0.572346736254850   0.116198694281465   0.150244479711112   1.0
C72   C   0.730787320533288   0.088767363972458   0.193859990444444   1.0
C73   C   0.866954823641613   0.094591288839865   0.240893385155559   1.0
C74   C   0.999275764481439   0.036103625887975   0.285104454888888   1.0
C75   C   0.006017831236512   0.054242171493357   0.341931152333331   1.0
C76   C   0.033740359327261   0.072735469546075   0.397460005022225   1.0
C77   C   0.023940828483923   0.064939379131900   0.452317810066667   1.0
C78   C   0.013014752184169   0.048673691899403   0.510951148133330   1.0
C79   C   0.996821119599467   0.061945981969622   0.568642255999997   1.0
C80   C   0.933948531803701   0.027520088222886   0.621868896488891   1.0
C81   C   0.721528294225422   0.945246933668045   0.615864478222221   1.0
C82   C   0.496936497634152   0.886397474078883   0.601079983177776   1.0
C83   C   0.460082935969446   0.064989178565398   0.599373372400002   1.0
C84   C   0.380477991935308   0.230194406870119   0.594120025644443   1.0
C85   C   0.272527747040435   0.384120617612901   0.596093326155554   1.0
C86   C   0.094698774080967   0.510296456794848   0.600786675355558   1.0
C87   C   0.935423205293667   0.468408143444300   0.559215545644442   1.0
C88   C   0.050985587414800   0.601741440703783   0.530526648622221   1.0
C89   C   0.195349695226696   0.719525329261501   0.512066650400001   1.0
C90   C   0.380120765288531   0.819312472731745   0.493235524488888   1.0
C91   C   0.573647250801045   0.911324911815633   0.489786699088889   1.0
C92   C   0.635100408590830   0.795662012089515   0.447717793777777   1.0
C93   C   0.730109550640748   0.698194480452969   0.401299964066666   1.0
C94   C   0.841961535897006   0.717319100283817   0.352057817244443   1.0
C95   C   0.890858439184818   0.717404340358961   0.295240020755557   1.0
C96   C   0.896820368447109   0.691483788392098   0.240860027733334   1.0
C97   C   0.906620082184048   0.646034335196482   0.184951104066670   1.0
C98   C   0.095733595877675   0.642352776888870   0.109660000266665   1.0
C99   C   0.069082566848515   0.643707687756248   0.142315546666666   1.0
C100   C   0.467775973318318   0.043984681567196   0.397084469266666   1.0
Cl101   Cl   0.313822994114261   0.905841405857302   0.383335537377775   1.0
Cl102   Cl   0.322724990314995   0.071997804845644   0.300362226688890   1.0
Cl103   Cl   0.289525796028293   0.805507914315484   0.260497792555554   1.0
Cl104   Cl   0.334612689483237   0.997470670646670   0.190553326066670   1.0
Cl105   Cl   0.687880339394646   0.816886243236596   0.141411124333331   1.0
Cl106   Cl   0.367125052172582   0.549120187379927   0.170986684155558   1.0
Cl107   Cl   0.515106669310448   0.626030254545398   0.259124501555554   1.0
Cl108   Cl   0.483977293268190   0.303664023206949   0.240502209133332   1.0
Cl109   Cl   0.792103177522925   0.455121519835821   0.305353291822222   1.0
Cl110   Cl   0.544734295825073   0.466017633586176   0.380144415955556   1.0
Cl111   Cl   0.853748442923496   0.432733965004090   0.428035566533332   1.0
Cl112   Cl   0.569388698760783   0.176743483718020   0.492582194000001   1.0
Cl113   Cl   0.315013611311407   0.261286205337306   0.421575588644444   1.0
Cl114   Cl   0.319263123535478   0.531151821719277   0.472684478755554   1.0
Cl115   Cl   0.039098060241642   0.605188927138968   0.419140031600001   1.0
Cl116   Cl   0.012978247555466   0.467797932883897   0.361804453533331   1.0
Cl117   Cl   0.262755655091283   0.341962783377703   0.302835591644445   1.0
Cl118   Cl   0.963328807315136   0.432017407336104   0.241439988888892   1.0
Cl119   Cl   0.189744817868572   0.220050299729024   0.200497818000002   1.0
Cl120   Cl   0.967697278593057   0.331123766921621   0.122633319422221   1.0
Cl121   Cl   0.415737921056198   0.268003916192640   0.067946667133334   1.0
Cl122   Cl   0.552024383309963   0.304394652229895   0.151648881711111   1.0
Cl123   Cl   0.808890558817026   0.063839926235708   0.136293326488890   1.0
Cl124   Cl   0.801389672764586   0.256412893056357   0.213208897911109   1.0
Cl125   Cl   0.067507450702024   0.991476536253785   0.232984500466664   1.0
Cl126   Cl   0.793696635415721   0.114467644797053   0.312240007177778   1.0
Cl127   Cl   0.004827191143320   0.227435064697247   0.363817765977778   1.0
Cl128   Cl   0.807113683827595   0.065060080846052   0.425022210022220   1.0
Cl129   Cl   0.978211445715132   0.218816077949008   0.484502241355557   1.0
Cl130   Cl   0.789904967237568   0.038628900444642   0.535682254377775   1.0
Cl131   Cl   0.014617466947648   0.204132058783451   0.607824452711114   1.0
Cl132   Cl   0.894512457260767   0.867279889925513   0.650135548911109   1.0
Cl133   Cl   0.688063363411999   0.804593004483031   0.577517784955553   1.0
Cl134   Cl   0.315764595151983   0.948339659143443   0.565799967444441   1.0
Cl135   Cl   0.610977041943613   0.188235195424198   0.571351114911110   1.0
Cl136   Cl   0.256390535739712   0.288086201241384   0.545624457466666   1.0
Cl137   Cl   0.336590821067979   0.562201152450719   0.588204447422221   1.0
Cl138   Cl   0.846146939471922   0.516836939330247   0.613593292244445   1.0
Cl139   Cl   0.817361983457580   0.556341778500155   0.516213311088890   1.0
Cl140   Cl   0.024426269681477   0.784482306028615   0.552799987800000   1.0
Cl141   Cl   0.167654749908877   0.798180246712477   0.460424465599999   1.0
Cl142   Cl   0.364212716190274   0.003316512328304   0.496593305799998   1.0
Cl143   Cl   0.809073626611614   0.843423770745595   0.490988922111114   1.0
Cl144   Cl   0.681130590036773   0.613481566262159   0.454255591488888   1.0
Cl145   Cl   0.763519805608915   0.878268008803687   0.377144453266666   1.0
Cl146   Cl   0.060363791204779   0.784269341259574   0.336284467911113   1.0
Cl147   Cl   0.772082764055178   0.838429786260306   0.261299981022219   1.0
Cl148   Cl   0.106183479607992   0.719993473077295   0.211757787066667   1.0
Cl149   Cl   0.836091140440423   0.619312526807050   0.126873313066667   1.0
Cl150   Cl   0.254009454199405   0.611509409156902   0.107155566755559   1.0
H151   H   0.526884492835094   0.988823541188502   0.407533348933335   1.0
H152   H   0.532599289339302   0.102195521517444   0.393444485133337   1.0
H153   H   0.329813624664929   0.068933226336391   0.364326646599999   1.0
H154   H   0.532846553062761   0.926221625196362   0.345228915733337   1.0
H155   H   0.523202874859976   0.049418396462599   0.334764438199997   1.0
H156   H   0.321369647161134   0.902939996939821   0.323317803266669   1.0
H157   H   0.507660982964765   0.861328240222328   0.293091074622225   1.0
H158   H   0.526976070326462   0.978388535505516   0.282824452711111   1.0
H159   H   0.335702558224284   0.974614701445283   0.253099992533336   1.0
H160   H   0.540173280263012   0.829243614961918   0.236268870044441   1.0
H161   H   0.536079454179465   0.969791197039335   0.229286660088889   1.0
H162   H   0.341627978736597   0.834443257984894   0.199648835933331   1.0
H163   H   0.576596248478921   0.927391984629423   0.176011106711108   1.0
H164   H   0.459908951768284   0.887766726926031   0.152822282577780   1.0
H165   H   0.637921145284750   0.773331013373387   0.190726682866668   1.0
H166   H   0.590068322038107   0.641856219809284   0.150568898511111   1.0
H167   H   0.463013591901024   0.712715325841465   0.142039998377776   1.0
H168   H   0.392924327199630   0.683184113662364   0.202448908488890   1.0
H169   H   0.644359478675938   0.642459123996460   0.208344480733331   1.0
H170   H   0.594006592854932   0.543019705879459   0.185482279466669   1.0
H171   H   0.446913238652336   0.502450820547097   0.227340062466666   1.0
H172   H   0.694254520359443   0.507274629343883   0.256693394977780   1.0
H173   H   0.659287709327764   0.428037914738176   0.226864496866668   1.0
H174   H   0.471448507700004   0.436897738482457   0.274177805577779   1.0
H175   H   0.688704493589185   0.298868661581864   0.281088850222226   1.0
H176   H   0.532232935505029   0.295988630321638   0.296471150711113   1.0
H177   H   0.584866481915263   0.461860625231424   0.318422190355555   1.0
H178   H   0.756824906747326   0.296073599771972   0.341500006777778   1.0
H179   H   0.613385745180125   0.279814922892434   0.347086673311111   1.0
H180   H   0.758784849439763   0.441061782514687   0.373777771000000   1.0
H181   H   0.775901682830444   0.265797670261001   0.396464453800000   1.0
H182   H   0.611957013335626   0.277686661524569   0.398146650533334   1.0
H183   H   0.635219324050617   0.427186596698810   0.429742262088887   1.0
H184   H   0.701251620812080   0.354100154656500   0.477664438888887   1.0
H185   H   0.777019304416235   0.258994990026274   0.457646687822219   1.0
H186   H   0.571376066701362   0.206756911067870   0.439031134711108   1.0
H187   H   0.471723284042916   0.392498496811228   0.445988888199999   1.0
H188   H   0.486605747700303   0.372167797910286   0.482140011266665   1.0
H189   H   0.336508370764108   0.227662100892189   0.471784464511110   1.0
H190   H   0.216331738340166   0.366123872454480   0.492068905311108   1.0
H191   H   0.140225169835531   0.316723339995676   0.461937798400001   1.0
H192   H   0.118803624422441   0.486993721434928   0.464175584577781   1.0
H193   H   0.162461971490849   0.414063146938318   0.413588884133333   1.0
H194   H   0.319720989378425   0.460697301475839   0.416999986444445   1.0
H195   H   0.251490853522270   0.617787406414195   0.422008853488890   1.0
H196   H   0.299957185249895   0.610799887237334   0.369511074488891   1.0
H197   H   0.150574261515679   0.649872031674605   0.367615593799996   1.0
H198   H   0.231781921595470   0.438820375149596   0.362591128888887   1.0
H199   H   0.285367839498548   0.535486109113954   0.318517812088892   1.0
H200   H   0.127751409414650   0.576047924931864   0.319977739111110   1.0
H201   H   0.057753678518964   0.411899673275144   0.302788882777776   1.0
H202   H   0.260484427305954   0.502110198616215   0.260688866511110   1.0
H203   H   0.105826252961215   0.536855328124133   0.265948910177777   1.0
H204   H   0.131515652344660   0.325299842054214   0.251375579844442   1.0
H205   H   0.273397864677470   0.401003830149591   0.215157784355554   1.0
H206   H   0.164156210626871   0.481006622719526   0.202539994977776   1.0
H207   H   0.029619064401494   0.324696667171295   0.187968826288888   1.0
H208   H   0.280001055082323   0.336053889059961   0.156451119311114   1.0
H209   H   0.175393575957642   0.433528456373992   0.152939944800004   1.0
H210   H   0.107795279247078   0.217099370444366   0.142515563955556   1.0
H211   H   0.156142619133718   0.327236279451512   0.088262218888886   1.0
H212   H   0.177600695093823   0.208111821935248   0.094751103711111   1.0
H213   H   0.371960625740876   0.351099434308914   0.113462236200000   1.0
H214   H   0.374552571423003   0.123675464306565   0.114048894244448   1.0
H215   H   0.322212121213354   0.192526964292206   0.143691126511108   1.0
H216   H   0.570771620016778   0.199322625732471   0.110388904155556   1.0
H217   H   0.558013868785771   0.050376057424273   0.138028886577779   1.0
H218   H   0.518385468295378   0.098613266198427   0.170486662133335   1.0
H219   H   0.736401674380964   0.200408015715205   0.160651100999999   1.0
H220   H   0.745972204118402   0.011197568007525   0.194548882377781   1.0
H221   H   0.658197862292155   0.098081260035691   0.210700013911108   1.0
H222   H   0.925687774856904   0.143225743263507   0.194884490977778   1.0
H223   H   0.817691784856216   0.028286434754747   0.243253326422220   1.0
H224   H   0.805272874840036   0.137947904355308   0.255906677244447   1.0
H225   H   0.057570436073348   0.140799505326854   0.253602261022223   1.0
H226   H   0.092152770044308   0.008608436920745   0.289286634666666   1.0
H227   H   0.937685349485569   0.971451077874512   0.285768890377781   1.0
H228   H   0.003515958775644   0.172480128255678   0.309271070688887   1.0
H229   H   0.106632240152059   0.044672821644227   0.344233364533331   1.0
H230   H   0.962266385527677   0.981580843035829   0.342717742911113   1.0
H231   H   0.863401422964806   0.097606080542420   0.371495564777774   1.0
H232   H   0.130489914049797   0.089632753366793   0.397544436977775   1.0
H233   H   0.022292339948770   0.999265311924162   0.397662183977779   1.0
H234   H   0.953859244278888   0.188284715862316   0.426344468866667   1.0
H235   H   0.123639372641762   0.079992239124650   0.455233340800000   1.0
H236   H   0.027475884666913   0.984808599578358   0.448737759066667   1.0
H237   H   0.862604519367387   0.081950324804005   0.481091139044445   1.0
H238   H   0.108765992486219   0.075041009953864   0.514195590555559   1.0
H239   H   0.011036644411313   0.974302695800006   0.508682250977778   1.0
H240   H   0.925770225160775   0.167415245675016   0.539300028488888   1.0
H241   H   0.092931157244408   0.075750261248622   0.570373365622224   1.0
H242   H   0.985629532070071   0.983304586217955   0.567717742911114   1.0
H243   H   0.842584455293270   0.124753556499456   0.591715579555554   1.0
H244   H   0.886233183916652   0.067096100369199   0.641526624888890   1.0
H245   H   0.022814296765127   0.010430931839728   0.626411098911113   1.0
H246   H   0.887084938010354   0.893739483661655   0.598726654044441   1.0
H247   H   0.704750171084193   0.999322138664567   0.598846689866669   1.0
H248   H   0.697221859783618   0.980020273630764   0.637102254222221   1.0
H249   H   0.631143796027715   0.811417079258035   0.628677792022224   1.0
H250   H   0.448268603694814   0.895817987874501   0.622973293733331   1.0
H251   H   0.453104351914128   0.821263252108814   0.593546634244447   1.0
H252   H   0.524823714315261   0.979885513117502   0.562515597866664   1.0
H253   H   0.538085163866342   0.077764903043580   0.615217759866667   1.0
H254   H   0.372400302783106   0.068465082591537   0.613064405644444   1.0
H255   H   0.403923588781566   0.134251995555481   0.556773291688891   1.0
H256   H   0.413842086921328   0.234230726137511   0.618255530466669   1.0
H257   H   0.287602536736863   0.208927437291550   0.599377780488886   1.0
H258   H   0.426315847433791   0.371940761715344   0.568604448111110   1.0
H259   H   0.318924238634999   0.402486195157003   0.616315544977780   1.0
H260   H   0.198930695802673   0.337479697951771   0.603437805177776   1.0
H261   H   0.209188078842921   0.468252005273790   0.559251149488887   1.0
H262   H   0.084835131840954   0.590086284595742   0.598739963111115   1.0
H263   H   0.103555025175879   0.496768725636464   0.624742211244445   1.0
H264   H   0.969301741606891   0.389455291703008   0.596511077888891   1.0
H265   H   0.848473017661952   0.432279892614204   0.559706624355556   1.0
H266   H   0.004937064680476   0.431173124974215   0.547317759199998   1.0
H267   H   0.892268829374601   0.620908545295272   0.561451127799998   1.0
H268   H   0.060803468247009   0.548857702172768   0.512555525044448   1.0
H269   H   0.124930629035085   0.590831255527526   0.547031148266669   1.0
H270   H   0.992223813624101   0.717595656916878   0.502897813577775   1.0
H271   H   0.226451820580259   0.657533353204954   0.499124484600003   1.0
H272   H   0.234648468877900   0.721631976184277   0.535613335511108   1.0
H273   H   0.189900460415018   0.876771301745563   0.506228892000003   1.0
H274   H   0.417129969499683   0.750808427474531   0.484968905977780   1.0
H275   H   0.407266321764624   0.819645856034271   0.517297787133330   1.0
H276   H   0.433450248594994   0.908536885683219   0.455562252466663   1.0
H277   H   0.581138922386266   0.912388924070171   0.514977773022224   1.0
H278   H   0.624668822921166   0.971514940292401   0.481159973155556   1.0
H279   H   0.621665018524240   0.765932177050203   0.494675530333332   1.0
H280   H   0.656860664344954   0.860037191701899   0.435304429799999   1.0
H281   H   0.539385678504118   0.783794161766302   0.441686672644444   1.0
H282   H   0.820008779544402   0.731414286688100   0.444342210555554   1.0
H283   H   0.636895406989886   0.706274154736178   0.389697774244446   1.0
H284   H   0.752923537576606   0.622738635584980   0.398128848600003   1.0
H285   H   0.910402317558308   0.770713467320320   0.396464453800000   1.0
H286   H   0.743362091341012   0.711218618783349   0.346040005155558   1.0
H287   H   0.877826042667856   0.647006342394150   0.354622226288889   1.0
H288   H   0.861899498969308   0.844750268278233   0.320671081533334   1.0
H289   H   0.796993601495920   0.682261897456684   0.293480004199999   1.0
H290   H   0.955479952768798   0.651567632146808   0.295411088733331   1.0
H291   H   0.992406881327106   0.810565761218662   0.261915545999997   1.0
H292   H   0.797369169888995   0.669968658703127   0.240640004466670   1.0
H293   H   0.946770610020536   0.628569866825615   0.247353320644443   1.0
H294   H   0.920394182591679   0.791703626594973   0.201751073200000   1.0
H295   H   0.804064068842166   0.641210830861475   0.187068896822225   1.0
H296   H   0.949215822007034   0.576424063548899   0.188591088199999   1.0
H297   H   0.923727832072885   0.750084834129062   0.151015514800001   1.0
H298   H   0.090705701856976   0.580743975126843   0.155293316311109   1.0
H299   H   0.136635074859186   0.689859356640078   0.151822280888886   1.0
H300   H   0.083836818702643   0.717198411196463   0.100724453399998   1.0
H301   H   0.399481750610036   0.070940828268583   0.413197750511110   1.0
H302   H   0.040691523629484   0.595350060590484   0.095573340511109   1.0


# Number_of_total_atoms: 302
# Number_of_atom_type: 3
# Name_of_each_atom: C Cl H
# Number_of_each_atom: 100 50 152
# Created_by: Lihua Chen (lihua.chen@mse.gatech.edu)
# Tool: VASP
# K-points: 2 1 1
# Pseudopotential: PBE-HSE06
# Material_class: MC_Pol
# Geometry_class: GC_PD
# Bandgap_(eV): 5.84
