#======================================================================

# Note: Disordered slab of syndiotactic polyvinyl chloride
# Common_name: Disordered slab-3

#----------------------------------------------------------------------

data_1
_audit_creation_method   'vasp2cif'
_cell_length_a    10.8255729675
_cell_length_b    14.7006568909
_cell_length_c    45.0
_cell_angle_alpha    90.0
_cell_angle_beta    90.0
_cell_angle_gamma    90.0

_symmetry_space_group_name_H-M    'P 1'
loop_
_atom_site_label
_atom_site_type_symbol
_atom_site_fract_x
_atom_site_fract_y
_atom_site_fract_z
_atom_site_occupancy
C1   C   0.448450751000003   0.045119104999998   0.359186638926893   1.0
C2   C   0.476246177000000   0.999198948999997   0.303991105919081   1.0
C3   C   0.513195687000000   0.914236721999998   0.252933374668139   1.0
C4   C   0.564222888000003   0.872510728999998   0.197777811115415   1.0
C5   C   0.730181803000001   0.784507779000002   0.168648911102430   1.0
C6   C   0.603805192999999   0.631446648000001   0.180895529757272   1.0
C7   C   0.633290932999998   0.519689575000001   0.225371085252860   1.0
C8   C   0.639599959000002   0.394906024000001   0.262306721446144   1.0
C9   C   0.654084249999997   0.407436095999998   0.319555579321168   1.0
C10   C   0.636708695000003   0.385164967999998   0.376084475678276   1.0
C11   C   0.634279178000000   0.384695548000003   0.435297817249371   1.0
C12   C   0.496328218000002   0.259701288999999   0.459333292666535   1.0
C13   C   0.258216140999998   0.292699800000001   0.451826646094702   1.0
C14   C   0.135709878000000   0.452985179000002   0.446031104560689   1.0
C15   C   0.145113457000001   0.577210823000001   0.403431107939895   1.0
C16   C   0.164465888000002   0.512193381000003   0.349257744410132   1.0
C17   C   0.185508511999998   0.448107774000000   0.296306694533008   1.0
C18   C   0.182026133000001   0.420762027999999   0.239008882469967   1.0
C19   C   0.217756238000000   0.353255023999999   0.184782282100180   1.0
C20   C   0.270566473000002   0.312508352000002   0.127851105106558   1.0
C21   C   0.496346717999998   0.315712294999997   0.110968907398565   1.0
C22   C   0.672346652999998   0.228450973000001   0.140504455528387   1.0
C23   C   0.837963760999997   0.144951239999998   0.170204417437368   1.0
C24   C   0.950641310999998   0.138931034999999   0.219968880858424   1.0
C25   C   0.069505567000000   0.123578213000002   0.271440039422799   1.0
C26   C   0.996541759000003   0.135278163000002   0.323577796600759   1.0
C27   C   0.948876953000003   0.141053417000002   0.382726627412431   1.0
C28   C   0.895355617999996   0.129455430999997   0.440106625157973   1.0
C29   C   0.857195865000001   0.089579620999999   0.496451144804539   1.0
C30   C   0.806861439999999   0.047173245000003   0.551073371500372   1.0
C31   C   0.804099499000003   0.018936398999998   0.610391150871827   1.0
C32   C   0.710330745999997   0.864721828999997   0.624395581980181   1.0
C33   C   0.505186877000000   0.808996522999998   0.605946688846167   1.0
C34   C   0.349823229000002   0.912665240999999   0.579948849262763   1.0
C35   C   0.335653039999997   0.094742726000000   0.577584415352639   1.0
C36   C   0.232314396000000   0.244851621000002   0.563420020417432   1.0
C37   C   0.100524727000000   0.402926131000001   0.564628855792506   1.0
C38   C   0.873278059000000   0.422489982999998   0.569415537647558   1.0
C39   C   0.815276587000000   0.549926317000001   0.530208927146049   1.0
C40   C   0.946863110999999   0.683648316999999   0.505144415869573   1.0
C41   C   0.107979290000003   0.805513626000000   0.483322227968301   1.0
C42   C   0.312938402999997   0.899298567999999   0.469097815818294   1.0
C43   C   0.525970987000001   0.812241206000003   0.460866631711937   1.0
C44   C   0.626372029000002   0.727877626000001   0.416704474445744   1.0
C45   C   0.807397055000003   0.791691026000002   0.381088850566670   1.0
C46   C   0.981669631999999   0.812302445999997   0.339402262913751   1.0
C47   C   0.011042131000004   0.787963429000001   0.281986660837099   1.0
C48   C   0.050153131999998   0.742074152999997   0.224386680871738   1.0
C49   C   0.150314197999997   0.716837294999998   0.173022206880034   1.0
C50   C   0.534432471999999   0.015786953000003   0.334066687630404   1.0
C51   C   0.558606681999997   0.936242389999997   0.284451123831268   1.0
C52   C   0.615241103000002   0.898972127999997   0.229059982607666   1.0
C53   C   0.652957211999997   0.871245448000003   0.172335519270767   1.0
C54   C   0.669815518999997   0.692511772000003   0.158653343882250   1.0
C55   C   0.690562673999999   0.581224380000002   0.201162211323606   1.0
C56   C   0.720556455999997   0.460270405999999   0.244246673085243   1.0
C57   C   0.702312728999999   0.356792153999997   0.290402221653998   1.0
C58   C   0.672014007999998   0.342432146999997   0.347137790431837   1.0
C59   C   0.649382510000002   0.334357806000000   0.405975595850741   1.0
C60   C   0.624672332000003   0.312059431999998   0.459928893510529   1.0
C61   C   0.386532594000002   0.327684720000001   0.462537807352476   1.0
C62   C   0.136966106999999   0.351962495999999   0.454173363845769   1.0
C63   C   0.162923176000000   0.474936612999997   0.413084411738353   1.0
C64   C   0.159108152000002   0.598060195999999   0.369486660879531   1.0
C65   C   0.226642691000002   0.522954757999997   0.317848884177835   1.0
C66   C   0.244923550000003   0.469276841000003   0.265764406254057   1.0
C67   C   0.263407555000001   0.407198141999999   0.210942205040283   1.0
C68   C   0.294694520999997   0.370968441000002   0.156675550387085   1.0
C69   C   0.360594024999997   0.331711769999998   0.101588906310098   1.0
C70   C   0.533573373000003   0.229416800000003   0.130066680630762   1.0
C71   C   0.714746222000002   0.139094514000000   0.154253387270472   1.0
C72   C   0.836217726000001   0.106667403999999   0.201691140642346   1.0
C73   C   0.949551405000001   0.104966695999998   0.252099990616941   1.0
C74   C   0.083721918999998   0.087164792000003   0.302695550080884   1.0
C75   C   0.028500708999999   0.114823485000002   0.355504438296705   1.0
C76   C   0.986833384000001   0.104918949000002   0.414588928005592   1.0
C77   C   0.937431705000002   0.078600530999999   0.469388919515673   1.0
C78   C   0.885646891000000   0.025759215999997   0.524284447743334   1.0
C79   C   0.841039670999997   0.986138216999997   0.577948930892227   1.0
C80   C   0.794723415999997   0.936861536999999   0.633513302149439   1.0
C81   C   0.576305368000000   0.891883855000003   0.619826676808628   1.0
C82   C   0.367235651999998   0.828206428000001   0.599022250847263   1.0
C83   C   0.330609449000001   0.005406506999996   0.595604451844288   1.0
C84   C   0.226245384000002   0.157161618000004   0.583257801749063   1.0
C85   C   0.135257248999999   0.307971141000003   0.577451069945795   1.0
C86   C   0.995932144999998   0.456644789000002   0.579491085013913   1.0
C87   C   0.827904064000002   0.450522603000003   0.538517760976113   1.0
C88   C   0.925081548999998   0.581326359999998   0.510097758276103   1.0
C89   C   0.075870053999999   0.707449926999999   0.493928866597393   1.0
C90   C   0.253855966000003   0.806520454000001   0.476911079066575   1.0
C91   C   0.454455101999997   0.893087895999997   0.474413299749607   1.0
C92   C   0.555567639000003   0.813873667999999   0.427957746400701   1.0
C93   C   0.680715638000002   0.738475782999998   0.383308919635503   1.0
C94   C   0.873693865999996   0.761420291000000   0.352331119225560   1.0
C95   C   0.055298383999997   0.763358953000001   0.313526662118086   1.0
C96   C   0.088885494000003   0.741258051999999   0.258331171524432   1.0
C97   C   0.164798368000000   0.718796457000003   0.206066683192269   1.0
C98   C   0.259481510000001   0.697606890000003   0.120917764846709   1.0
C99   C   0.271407093000000   0.699511559000001   0.155400001072600   1.0
C100   C   0.516170068999998   0.066662362999999   0.386740027259393   1.0
Cl101   Cl   0.340853770000002   0.958574757999997   0.367973327179669   1.0
Cl102   Cl   0.448755558000002   0.110884661000000   0.287375556610620   1.0
Cl103   Cl   0.409515237000001   0.816234262999998   0.258191129392969   1.0
Cl104   Cl   0.459489531000003   0.959561084999997   0.187855572087287   1.0
Cl105   Cl   0.854073792999998   0.804336831999997   0.143019994596756   1.0
Cl106   Cl   0.527060849000001   0.548014901999998   0.158886718373140   1.0
Cl107   Cl   0.565026662999998   0.603345781000002   0.250224431742147   1.0
Cl108   Cl   0.598447456000002   0.303808117000003   0.238799964455090   1.0
Cl109   Cl   0.736370975000000   0.511662721000000   0.323757764594987   1.0
Cl110   Cl   0.473816704999997   0.417320130999997   0.372753312310103   1.0
Cl111   Cl   0.774724536999997   0.448291494000003   0.445771111649790   1.0
Cl112   Cl   0.486305520999999   0.195568195000000   0.493057759863419   1.0
Cl113   Cl   0.272330830999998   0.249966980000004   0.413806661264573   1.0
Cl114   Cl   0.227732773000000   0.516023218000001   0.469673326488426   1.0
Cl115   Cl   0.990186616000003   0.624440114000002   0.412522209689143   1.0
Cl116   Cl   0.003846207000002   0.478181296000002   0.344802262950033   1.0
Cl117   Cl   0.240692719000002   0.338058416000003   0.309557766506835   1.0
Cl118   Cl   0.045349684000001   0.481391985999998   0.226957829616751   1.0
Cl119   Cl   0.238217085000002   0.233688811000000   0.192713335362079   1.0
Cl120   Cl   0.116893228000002   0.344534289000002   0.119699987152870   1.0
Cl121   Cl   0.592627927999999   0.318882244999998   0.078111096983356   1.0
Cl122   Cl   0.673371897999999   0.309039208999998   0.169400024642812   1.0
Cl123   Cl   0.951445086000000   0.083470929000001   0.147751066775157   1.0
Cl124   Cl   0.928591589999996   0.262789515000001   0.222982279695039   1.0
Cl125   Cl   0.195706692999998   0.072151904000002   0.250600009130331   1.0
Cl126   Cl   0.839192152000003   0.089586367999999   0.317451138321942   1.0
Cl127   Cl   0.941293066000000   0.262265827999997   0.382059987562862   1.0
Cl128   Cl   0.744075023000001   0.081783973999997   0.431713358873090   1.0
Cl129   Cl   0.887808731999996   0.201220960000001   0.507742224270586   1.0
Cl130   Cl   0.652846388999997   0.011127258000002   0.542115529151488   1.0
Cl131   Cl   0.914329076999998   0.106197983000001   0.621771070330837   1.0
Cl132   Cl   0.704779025000001   0.786249228000003   0.652622223236726   1.0
Cl133   Cl   0.561821209000001   0.786473688000001   0.567864481264920   1.0
Cl134   Cl   0.209950706000001   0.900706569999997   0.561444431280421   1.0
Cl135   Cl   0.480144185999997   0.145420661000003   0.592157745234829   1.0
Cl136   Cl   0.190238133999998   0.213356345000001   0.526395585467171   1.0
Cl137   Cl   0.237524309999998   0.465338277000001   0.569642215413829   1.0
Cl138   Cl   0.764452708999997   0.474228979000003   0.593635559431902   1.0
Cl139   Cl   0.680789461000003   0.558892012000001   0.507491132442460   1.0
Cl140   Cl   0.925109034999998   0.748237338000003   0.539900038455606   1.0
Cl141   Cl   0.033645960999998   0.822220215000002   0.446702236776723   1.0
Cl142   Cl   0.266335642000001   0.985505576999998   0.495222219255602   1.0
Cl143   Cl   0.683135728000003   0.812390932000000   0.477057816744491   1.0
Cl144   Cl   0.513518994000002   0.639697962000000   0.416322241568928   1.0
Cl145   Cl   0.769671784000003   0.910692586000003   0.379144457044454   1.0
Cl146   Cl   0.083962075000002   0.825655625000003   0.371082221497886   1.0
Cl147   Cl   0.854600245999997   0.747856405000000   0.278373294854333   1.0
Cl148   Cl   0.004880794999998   0.856796955000000   0.217615593625219   1.0
Cl149   Cl   0.042689398000000   0.623528520000001   0.163711124089140   1.0
Cl150   Cl   0.408305169000002   0.724218016000002   0.105977757480943   1.0
H151   H   0.586097125000002   0.113694176999999   0.383757781623409   1.0
H152   H   0.444257096999998   0.098205122000003   0.402057817549675   1.0
H153   H   0.394310464000000   0.102429385999997   0.353451114607672   1.0
H154   H   0.573118502000000   0.952153377999998   0.343137784034113   1.0
H155   H   0.623720867000003   0.052452078999998   0.333697764552682   1.0
H156   H   0.378200432000000   0.963941822999999   0.305817751841843   1.0
H157   H   0.563151480999998   0.870612807999997   0.297724405508795   1.0
H158   H   0.662970526000002   0.948180821000001   0.284511142224233   1.0
H159   H   0.457826656999998   0.973247710999999   0.244277785049889   1.0
H160   H   0.683884003999999   0.846464257999997   0.236957761960916   1.0
H161   H   0.659922322000000   0.965996218000001   0.225675497571153   1.0
H162   H   0.498951673999997   0.805819825999997   0.197780057887734   1.0
H163   H   0.721184747000002   0.927147728000001   0.175579960997638   1.0
H164   H   0.606096047999998   0.880333364000002   0.150420040246054   1.0
H165   H   0.771463627999999   0.764291047000000   0.189526621663518   1.0
H166   H   0.749912874000003   0.646996942000001   0.150051117168331   1.0
H167   H   0.613846168999999   0.708259540000000   0.139142226986770   1.0
H168   H   0.536205991999999   0.666377074000003   0.193702230931486   1.0
H169   H   0.755030464999997   0.632058788000002   0.211744478305008   1.0
H170   H   0.752231524000003   0.535675296999997   0.189051056427282   1.0
H171   H   0.568573702999998   0.473684824999999   0.212686665280543   1.0
H172   H   0.772535210999997   0.501806191000000   0.260557767661247   1.0
H173   H   0.786095785999997   0.423122624000001   0.230071131473110   1.0
H174   H   0.556029387000002   0.429700476999997   0.268822224498074   1.0
H175   H   0.809013767000003   0.353669951000000   0.289195590637085   1.0
H176   H   0.669769357999996   0.282462076999998   0.294124434153439   1.0
H177   H   0.555770741000003   0.424238178000003   0.315904405827304   1.0
H178   H   0.773412985000000   0.320820906999998   0.347964477758417   1.0
H179   H   0.613966329999997   0.281149309000000   0.348611111084274   1.0
H180   H   0.693195293000002   0.445624958000003   0.381213293712570   1.0
H181   H   0.740435306999998   0.313011766000003   0.407240040902458   1.0
H182   H   0.598909423999999   0.271279043000000   0.402955542703658   1.0
H183   H   0.552297523999997   0.433761519999997   0.435133362234218   1.0
H184   H   0.625633047999997   0.346160003999998   0.482382201758583   1.0
H185   H   0.702090906999999   0.269272393999998   0.459008873824530   1.0
H186   H   0.472597299999997   0.211682883999998   0.440844472491591   1.0
H187   H   0.409275090999998   0.385750121999997   0.450184461710805   1.0
H188   H   0.386301609999997   0.344867475999998   0.485877736491751   1.0
H189   H   0.245459165000000   0.228444226000001   0.464835527323189   1.0
H190   H   0.106880046000001   0.347248311999998   0.477546691779821   1.0
H191   H   0.057635527000002   0.316256449000001   0.444617801123044   1.0
H192   H   0.039557815000002   0.471344989000002   0.447155592309265   1.0
H193   H   0.094714359999998   0.435700181999998   0.401397789596402   1.0
H194   H   0.254419441000003   0.456229862000001   0.406213294229623   1.0
H195   H   0.225922077000000   0.615215966000001   0.413222249511662   1.0
H196   H   0.247029539000003   0.633874970000001   0.365317789572174   1.0
H197   H   0.082345529000001   0.644010713000000   0.361322190712592   1.0
H198   H   0.211280934000001   0.452651732000000   0.360291121329929   1.0
H199   H   0.325907686999997   0.522635031999997   0.320393372088681   1.0
H200   H   0.205516729000003   0.587979206000000   0.305877770234808   1.0
H201   H   0.082862831000000   0.448733668000003   0.294360013002489   1.0
H202   H   0.339625202000001   0.456706029000003   0.267066701231037   1.0
H203   H   0.246530747000001   0.545579572999998   0.261908891940102   1.0
H204   H   0.141418573000003   0.354288838999999   0.246091122351736   1.0
H205   H   0.362515367999997   0.387919990000000   0.213855531200522   1.0
H206   H   0.274353857000001   0.481385238999998   0.202057774533593   1.0
H207   H   0.120477444000002   0.360275051000002   0.179460016615927   1.0
H208   H   0.388380112999997   0.365397156000000   0.163391112785270   1.0
H209   H   0.290325183999997   0.447298420000003   0.150548892108269   1.0
H210   H   0.284708825000003   0.236396087000003   0.134253354103677   1.0
H211   H   0.350174197999998   0.400837742999997   0.090780003976590   1.0
H212   H   0.343726556000000   0.284700192000003   0.081951099496401   1.0
H213   H   0.529047073999998   0.374410337999997   0.125279998775710   1.0
H214   H   0.495755426999999   0.168188454999999   0.117064454890908   1.0
H215   H   0.481104946000002   0.223975002000003   0.153537792054713   1.0
H216   H   0.730745255000002   0.254585914000003   0.122826682458459   1.0
H217   H   0.729756834000000   0.087368752000003   0.136560016393155   1.0
H218   H   0.645456486999997   0.114326818000002   0.169828881285177   1.0
H219   H   0.873675542000001   0.216444813999999   0.169202210890695   1.0
H220   H   0.828384356000001   0.033684086000001   0.200695545991970   1.0
H221   H   0.753607914000000   0.133509744000001   0.213851123662380   1.0
H222   H   0.040897383000001   0.123768679999998   0.211277728145049   1.0
H223   H   0.936083152999998   0.031656939999998   0.253242195702747   1.0
H224   H   0.867689691000002   0.131863521000000   0.262746683529443   1.0
H225   H   0.087425949000000   0.201663134000000   0.272426690576239   1.0
H226   H   0.178783735000003   0.093225738000001   0.309213341141117   1.0
H227   H   0.069976521000001   0.011249741999997   0.305162217433207   1.0
H228   H   0.993114880000000   0.211948344000000   0.318742200615510   1.0
H229   H   0.120107976000000   0.149141511000003   0.358964453527086   1.0
H230   H   0.045811653999998   0.038146566000002   0.359815554915521   1.0
H231   H   0.853186856999997   0.122959066000000   0.378211127559361   1.0
H232   H   0.081523259000001   0.132883849999999   0.421508873638032   1.0
H233   H   0.010183026999997   0.031038056000000   0.415920003346578   1.0
H234   H   0.884843468000000   0.203234354999999   0.441202206478231   1.0
H235   H   0.031475137000001   0.109184212999999   0.476011149554438   1.0
H236   H   0.952405669000001   0.007385908000003   0.467751142669911   1.0
H237   H   0.761699929000002   0.079763831000001   0.489902241779653   1.0
H238   H   0.990362099999999   0.032745511000002   0.526760016178436   1.0
H239   H   0.878571133999998   0.951962911000003   0.519317796715882   1.0
H240   H   0.812847290999997   0.120768697000003   0.558053334347612   1.0
H241   H   0.943149748000003   0.968424800000001   0.578482225334945   1.0
H242   H   0.803536045999998   0.918148039000002   0.573960028757263   1.0
H243   H   0.713018820000002   0.050329697000002   0.611597781888747   1.0
H244   H   0.763491772999998   0.953513893000000   0.656577810227063   1.0
H245   H   0.886164182000002   0.905699706999997   0.637388865401270   1.0
H246   H   0.748167191999997   0.823016336000002   0.605695597018041   1.0
H247   H   0.563252966000000   0.947833881000001   0.604033321282110   1.0
H248   H   0.544380949000001   0.908937643999998   0.641868930579868   1.0
H249   H   0.515126148000000   0.743727374000002   0.619464450455524   1.0
H250   H   0.311718974999998   0.832811624999998   0.620744408486324   1.0
H251   H   0.336890945000000   0.763114252000001   0.589051140103095   1.0
H252   H   0.417182283999999   0.923447117999999   0.560951148706948   1.0
H253   H   0.395428207999998   0.006535817000000   0.614766693421750   1.0
H254   H   0.241884286999998   0.007440402000000   0.606591118992043   1.0
H255   H   0.352908456000001   0.077641450000002   0.554508887840583   1.0
H256   H   0.233653785999998   0.178119977999998   0.606237792543546   1.0
H257   H   0.141917374999999   0.120952416999998   0.576022253529075   1.0
H258   H   0.327385540000002   0.279326120999997   0.564028931060513   1.0
H259   H   0.166775199000000   0.319038718000002   0.600617811465618   1.0
H260   H   0.048749080000000   0.267904841000004   0.580140007526246   1.0
H261   H   0.085578599999998   0.405327466999999   0.541437785039150   1.0
H262   H   0.003375081999998   0.529696090999998   0.572577752455942   1.0
H263   H   0.015882392999998   0.455719701000000   0.602031114903262   1.0
H264   H   0.862442778000002   0.350329774999999   0.573888906101537   1.0
H265   H   0.737460837999997   0.422115796000000   0.538188849767643   1.0
H266   H   0.882377171999998   0.410612792000002   0.522244432675215   1.0
H267   H   0.801679364999998   0.592142230000000   0.550506677084698   1.0
H268   H   0.925294033000000   0.547300780999997   0.488562181705746   1.0
H269   H   0.006183182999997   0.554205074999999   0.520537736353717   1.0
H270   H   0.877056260000003   0.714211499999998   0.491713375901511   1.0
H271   H   0.091730607999999   0.666125366999999   0.474053361404813   1.0
H272   H   0.137178579999997   0.681430702000000   0.511622196238726   1.0
H273   H   0.089495296000003   0.863368061000003   0.498811086348198   1.0
H274   H   0.260636275000003   0.757094047000002   0.457668897400765   1.0
H275   H   0.301724116999999   0.782630357999999   0.496902211150598   1.0
H276   H   0.283729741000002   0.924528678999998   0.446304406092508   1.0
H277   H   0.473484059999997   0.894257942999999   0.497677782345164   1.0
H278   H   0.496263556000002   0.953017226000000   0.463915591287332   1.0
H279   H   0.486462682000003   0.748352812000000   0.466588847410243   1.0
H280   H   0.613504405999997   0.873435817000001   0.423155551566566   1.0
H281   H   0.473622720999998   0.823641969999997   0.413164435476858   1.0
H282   H   0.707661172000002   0.708232293999998   0.429337819522033   1.0
H283   H   0.617652075000002   0.775208896999999   0.368682183256652   1.0
H284   H   0.697666269000003   0.670601337999997   0.372428893468097   1.0
H285   H   0.866304139999997   0.778582806999999   0.401482222051222   1.0
H286   H   0.796765096999998   0.756318426000000   0.335266706751021   1.0
H287   H   0.915382336000000   0.693348632999999   0.354724460742169   1.0
H288   H   0.956756484000003   0.878041015000001   0.330857764228149   1.0
H289   H   0.058004996000001   0.688770421999997   0.315828874455263   1.0
H290   H   0.152605010000002   0.781167863000000   0.315937804622081   1.0
H291   H   0.004723630000001   0.858742622999998   0.278095584606198   1.0
H292   H   0.078170192999998   0.668403963000003   0.265908855923669   1.0
H293   H   0.190847748000003   0.761685751000002   0.261328887725334   1.0
H294   H   0.972949677999999   0.688042547999999   0.219097815360435   1.0
H295   H   0.201941851000001   0.650799532999997   0.211242209820433   1.0
H296   H   0.246346101000000   0.760270743000000   0.213024436335807   1.0
H297   H   0.108357921000000   0.781813997000000   0.165257771755463   1.0
H298   H   0.305622302000003   0.633466790000000   0.163764444579314   1.0
H299   H   0.337814727000001   0.751869702000000   0.163071102659579   1.0
H300   H   0.196390307000002   0.750413954000003   0.112746683961632   1.0
H301   H   0.556953147000002   0.011018534999998   0.395782216056617   1.0
H302   H   0.229275309000002   0.629847920000003   0.112522210553522   1.0


# Number_of_total_atoms: 302
# Number_of_atom_type: 3
# Name_of_each_atom: C Cl H
# Number_of_each_atom: 100 50 152
# Created_by: Lihua Chen (lihua.chen@mse.gatech.edu)
# Tool: VASP
# K-points: 2 1 1
# Pseudopotential: PBE-HSE06
# Material_class: MC_Pol
# Geometry_class: GC_PD
# Bandgap_(eV): 6.09
