#======================================================================

# Note: Disordered slab of syndiotactic polyvinyl chloride
# Common_name: Disordered slab-4

#----------------------------------------------------------------------

data_1
_audit_creation_method   'vasp2cif'
_cell_length_a    10.8679676056
_cell_length_b    13.9943962097
_cell_length_c    45.0
_cell_angle_alpha    90.0
_cell_angle_beta    90.0
_cell_angle_gamma    90.0

_symmetry_space_group_name_H-M    'P 1'
loop_
_atom_site_label
_atom_site_type_symbol
_atom_site_fract_x
_atom_site_fract_y
_atom_site_fract_z
_atom_site_occupancy
C1   C   0.431960470000000   0.019732885000003   0.351313358463820   1.0
C2   C   0.449939934000000   0.995573452000002   0.296086628663033   1.0
C3   C   0.453813787000001   0.932333700999997   0.239657762568143   1.0
C4   C   0.467468535000002   0.850643865000002   0.188924450159213   1.0
C5   C   0.640702349999998   0.756913568000002   0.160848871646749   1.0
C6   C   0.546756549999998   0.589589557000004   0.175513330708377   1.0
C7   C   0.586561602000003   0.489220664000001   0.221500057959822   1.0
C8   C   0.618867678999997   0.368572352999998   0.261522250346971   1.0
C9   C   0.666236161000000   0.391481696000000   0.319024404408282   1.0
C10   C   0.697391910999997   0.385357745000000   0.376364475112887   1.0
C11   C   0.713337879000001   0.371130587000003   0.433046637394064   1.0
C12   C   0.548679786999998   0.275385049999997   0.463035583470585   1.0
C13   C   0.328675337999996   0.316930380999999   0.453022257677176   1.0
C14   C   0.207070268000002   0.480138594000003   0.446417744975648   1.0
C15   C   0.221994946999999   0.583387101000000   0.402064429445971   1.0
C16   C   0.214909761000001   0.511958311000001   0.348173353359130   1.0
C17   C   0.211330576000002   0.434141637000003   0.296382225905049   1.0
C18   C   0.178463299000001   0.400113722999997   0.241275617718514   1.0
C19   C   0.182429104000001   0.329521196999998   0.186048889095900   1.0
C20   C   0.196635980000004   0.256227619000001   0.132182227070913   1.0
C21   C   0.403896492999998   0.265288136999999   0.104344431765654   1.0
C22   C   0.580240420000003   0.204535491000002   0.134924443905547   1.0
C23   C   0.776946952000003   0.137658579000004   0.163357840054800   1.0
C24   C   0.884860242999999   0.130734320999998   0.216691122808747   1.0
C25   C   0.012783732999999   0.086495280000001   0.261273362877006   1.0
C26   C   0.991384261999997   0.126868485000003   0.320017751108161   1.0
C27   C   0.970616775000003   0.135229023999997   0.378484429091188   1.0
C28   C   0.940611220000001   0.122624025000000   0.438251071628720   1.0
C29   C   0.937878656000002   0.139094860000000   0.493915557976472   1.0
C30   C   0.904882550000004   0.107325052999997   0.550580004098585   1.0
C31   C   0.874021247999998   0.036417964999998   0.604422250883545   1.0
C32   C   0.766687464000000   0.865214211999998   0.608362240066477   1.0
C33   C   0.532715390999996   0.834394652999997   0.598788876356373   1.0
C34   C   0.376062247000000   0.964460860999999   0.582651095464136   1.0
C35   C   0.393158411000002   0.151728464000001   0.585455576285881   1.0
C36   C   0.245623993000002   0.297651086000002   0.579640028228155   1.0
C37   C   0.091906127999998   0.436385305000002   0.593271128720644   1.0
C38   C   0.864249303999998   0.432426517000003   0.580562252272316   1.0
C39   C   0.893785567000002   0.565308281000000   0.540544467423310   1.0
C40   C   0.024984799999999   0.700941272000001   0.517242262144975   1.0
C41   C   0.184683425000003   0.817252171000000   0.497342258062218   1.0
C42   C   0.370090619999999   0.935449374999997   0.479331122653349   1.0
C43   C   0.579264981000001   0.859118883000001   0.469219970955884   1.0
C44   C   0.671453305000000   0.754234033000003   0.425966644284614   1.0
C45   C   0.801385586999999   0.778272160999997   0.381435563940698   1.0
C46   C   0.942368696000003   0.800116504000002   0.334797753411081   1.0
C47   C   0.929956150999999   0.768839816000003   0.275153350839460   1.0
C48   C   0.961737784000000   0.733432882000002   0.218526670992461   1.0
C49   C   0.037949468999997   0.697246894000003   0.164586681953587   1.0
C50   C   0.515333992999999   0.008685454000002   0.325275590661313   1.0
C51   C   0.524222504999997   0.963074753999997   0.267886691832992   1.0
C52   C   0.536754741999999   0.876282899000003   0.217726685736039   1.0
C53   C   0.548918952000001   0.840861517999997   0.160860019501840   1.0
C54   C   0.576108931000000   0.662618743000003   0.150237783065350   1.0
C55   C   0.652664250000001   0.545457677000002   0.194851133920089   1.0
C56   C   0.675566365999998   0.439572396999999   0.242839982722067   1.0
C57   C   0.680709974999999   0.327148596000001   0.290193346053286   1.0
C58   C   0.705157956000001   0.332393723999999   0.345948876752154   1.0
C59   C   0.689432725000003   0.322254014999999   0.403099992373271   1.0
C60   C   0.683681923999998   0.306111657000002   0.460284424317180   1.0
C61   C   0.455368733999997   0.358632722999999   0.462413364206576   1.0
C62   C   0.212692294999997   0.379612690999998   0.460708872243238   1.0
C63   C   0.227883736999999   0.479045245999998   0.412979973938001   1.0
C64   C   0.257042845999997   0.595012957000002   0.368953365258640   1.0
C65   C   0.246626986000002   0.525285079000000   0.315035587101633   1.0
C66   C   0.267679663000003   0.440079683000000   0.264822218100349   1.0
C67   C   0.238741335999997   0.394497057999999   0.210386657301527   1.0
C68   C   0.250896244000003   0.324511856999997   0.156422170550655   1.0
C69   C   0.255634970000003   0.264530888999999   0.101644431158427   1.0
C70   C   0.452093167000001   0.182440896000003   0.122126685050098   1.0
C71   C   0.646720176999999   0.116800194000000   0.147764502638559   1.0
C72   C   0.775180349999999   0.097228139999999   0.197122234292614   1.0
C73   C   0.881501839999999   0.092747619000001   0.247717793756557   1.0
C74   C   0.039614811000000   0.063650281000001   0.294508870210237   1.0
C75   C   0.037590569999999   0.096599279999999   0.351240031449933   1.0
C76   C   0.029576274000000   0.115456883000000   0.409877777522574   1.0
C77   C   0.018534578000001   0.126182663000002   0.466355556569496   1.0
C78   C   0.978079114000003   0.084115591000000   0.521708849046014   1.0
C79   C   0.913715910000001   0.022412412999998   0.573422240769901   1.0
C80   C   0.863770885999998   0.935506619000002   0.620293342140258   1.0
C81   C   0.638760992000002   0.903593712000003   0.606155565625059   1.0
C82   C   0.407337732999998   0.874632108999997   0.597746700354605   1.0
C83   C   0.400813978000002   0.052160164999996   0.601475524750349   1.0
C84   C   0.268130550000002   0.200154992999998   0.592199961462242   1.0
C85   C   0.118893741999997   0.325726779999997   0.591979980420589   1.0
C86   C   0.963964201000003   0.469598726999997   0.601586659275327   1.0
C87   C   0.874867518000002   0.454421056000001   0.547471109780368   1.0
C88   C   0.008698397000003   0.596063510000000   0.524431101771100   1.0
C89   C   0.148936151999997   0.717469340999997   0.502768876518516   1.0
C90   C   0.321424653999998   0.838038875000002   0.492135535819259   1.0
C91   C   0.511570575000000   0.940608638999997   0.481119961065019   1.0
C92   C   0.586598502000001   0.844291487000000   0.435175577283459   1.0
C93   C   0.689690405999997   0.719862931999998   0.392680019641190   1.0
C94   C   0.847751426000002   0.736948443000003   0.352519989480733   1.0
C95   C   0.000564410999999   0.766946150999999   0.306266699836243   1.0
C96   C   0.010980277000002   0.725858221000003   0.250882254159087   1.0
C97   C   0.069638976999997   0.719784427000000   0.197184457043740   1.0
C98   C   0.129419992999999   0.623481722000001   0.116544426654940   1.0
C99   C   0.154502895000000   0.665005246000000   0.147231123367511   1.0
C100   C   0.499995349000002   0.067001730999998   0.378044467007882   1.0
Cl101   Cl   0.377010132999999   0.903236348999997   0.364728885452799   1.0
Cl102   Cl   0.403353490000001   0.110111715000002   0.284253353671488   1.0
Cl103   Cl   0.348099359000003   0.846642281000001   0.252242194692400   1.0
Cl104   Cl   0.350970218000001   0.932941298000003   0.178637780419827   1.0
Cl105   Cl   0.762841164999998   0.788047419999998   0.134855566843967   1.0
Cl106   Cl   0.450446081999999   0.503033524000003   0.158428828059975   1.0
Cl107   Cl   0.496820870999997   0.574326292999999   0.243848927229351   1.0
Cl108   Cl   0.587987949999999   0.271747914999999   0.238364452324092   1.0
Cl109   Cl   0.761488747000001   0.495951939999998   0.316544427256865   1.0
Cl110   Cl   0.559877815999997   0.467769392000001   0.376180013574029   1.0
Cl111   Cl   0.870055256999997   0.397491158999998   0.433728875051031   1.0
Cl112   Cl   0.542855187000001   0.214896523999997   0.497639973655900   1.0
Cl113   Cl   0.331914224999999   0.276471311000002   0.413651106154035   1.0
Cl114   Cl   0.307815888000000   0.554646839999997   0.464157783210851   1.0
Cl115   Cl   0.063207173999999   0.627447597000000   0.404262203982789   1.0
Cl116   Cl   0.050159663000002   0.505148462000001   0.348026699331363   1.0
Cl117   Cl   0.287287632000002   0.336716961999997   0.316386667788159   1.0
Cl118   Cl   0.045457792000001   0.472585467999998   0.234126662719163   1.0
Cl119   Cl   0.181785011999999   0.205349966000000   0.200535498514966   1.0
Cl120   Cl   0.031361308999998   0.282702389000001   0.125977791825910   1.0
Cl121   Cl   0.477479688000003   0.267846370999997   0.069244427406233   1.0
Cl122   Cl   0.564469295999999   0.279350942999997   0.166295539040909   1.0
Cl123   Cl   0.899738941000003   0.072768318999998   0.144097773751454   1.0
Cl124   Cl   0.880655218999998   0.262308482999998   0.220282194259497   1.0
Cl125   Cl   0.104705293000002   0.994958767000000   0.243666670048647   1.0
Cl126   Cl   0.829909905999997   0.108639742000001   0.321622212809295   1.0
Cl127   Cl   0.988789642999997   0.259714541000001   0.371144443070833   1.0
Cl128   Cl   0.838237118999999   0.024899230999999   0.441371070209691   1.0
Cl129   Cl   0.936608724999999   0.262637224000002   0.502144452896353   1.0
Cl130   Cl   0.747346104999998   0.119915869000003   0.542051103220381   1.0
Cl131   Cl   0.987464602999999   0.106989224999999   0.624566650069802   1.0
Cl132   Cl   0.788604839000001   0.753733834999998   0.627731069236347   1.0
Cl133   Cl   0.557743010999999   0.778072080999998   0.562733375222315   1.0
Cl134   Cl   0.214974171000001   0.967797877000002   0.570551130837067   1.0
Cl135   Cl   0.525924697000001   0.224293160000002   0.601371086949989   1.0
Cl136   Cl   0.236542297000000   0.288726300000000   0.538268873506148   1.0
Cl137   Cl   0.194565584999999   0.484561599000003   0.620664469576141   1.0
Cl138   Cl   0.721462738000000   0.482124939000002   0.591506703192657   1.0
Cl139   Cl   0.764285895999997   0.600250998999996   0.518926662756286   1.0
Cl140   Cl   0.019381019999997   0.764445160000001   0.551877763116764   1.0
Cl141   Cl   0.105422920000002   0.853416625000001   0.463731129748474   1.0
Cl142   Cl   0.299783167000001   0.043663885000001   0.495288848366698   1.0
Cl143   Cl   0.728391244999997   0.867357839000000   0.483715566286044   1.0
Cl144   Cl   0.594594366999999   0.656137430000001   0.442599995758627   1.0
Cl145   Cl   0.744972265999998   0.898791809999999   0.374006653099066   1.0
Cl146   Cl   0.064145758000002   0.826941566000002   0.359642198817589   1.0
Cl147   Cl   0.793435703999997   0.697289689999998   0.277337815577184   1.0
Cl148   Cl   0.893758188000000   0.848814803000003   0.208913336649090   1.0
Cl149   Cl   0.930232040000000   0.602823407000002   0.165453338735254   1.0
Cl150   Cl   0.277506715000001   0.618429585000001   0.098857794916398   1.0
H151   H   0.573090868999998   0.023062809000003   0.385848914001713   1.0
H152   H   0.532899317000002   0.138780566999998   0.372371080611458   1.0
H153   H   0.347851044999999   0.064600789000004   0.346244472815997   1.0
H154   H   0.572658343999997   0.947732713000001   0.328557756249133   1.0
H155   H   0.572732099000000   0.073797337000002   0.325522190122975   1.0
H156   H   0.368517246000003   0.947861373999999   0.299877760638218   1.0
H157   H   0.584988316000000   0.904193949000003   0.276359981856380   1.0
H158   H   0.592754229999997   0.016881613999999   0.261526659063286   1.0
H159   H   0.413594726000000   0.993972818000003   0.228055572881004   1.0
H160   H   0.582135839999999   0.816387523000003   0.228855556959253   1.0
H161   H   0.603869420999999   0.933448583000001   0.211644448042790   1.0
H162   H   0.411772841000001   0.786018007000003   0.192326608940626   1.0
H163   H   0.603703791000001   0.906766357000002   0.158331171812556   1.0
H164   H   0.494621832999997   0.830678740000003   0.139179993261877   1.0
H165   H   0.677563051000000   0.743965662999997   0.182368850409709   1.0
H166   H   0.640269957000001   0.622645695999999   0.135982216536540   1.0
H167   H   0.488098077000004   0.682412409999998   0.136964458973665   1.0
H168   H   0.492155855999997   0.636100886999998   0.190442233811375   1.0
H169   H   0.719235970000000   0.600486787000001   0.204257838256886   1.0
H170   H   0.715988000999999   0.494372839999997   0.183028878362983   1.0
H171   H   0.512076722000003   0.444502960000001   0.213411076750759   1.0
H172   H   0.732541161999997   0.490885628999997   0.255111101445252   1.0
H173   H   0.742800606000003   0.399306047000003   0.228513378365854   1.0
H174   H   0.527719028999996   0.395140091999998   0.269093322849912   1.0
H175   H   0.773643655999997   0.300538060000001   0.284155527767425   1.0
H176   H   0.623910023999997   0.263644690000000   0.294797770727634   1.0
H177   H   0.572768822999997   0.415469667000003   0.321344417732838   1.0
H178   H   0.799140567000002   0.311906866999998   0.344286685844544   1.0
H179   H   0.652480105000002   0.266324259000001   0.347979990737492   1.0
H180   H   0.781510703000002   0.428596390000003   0.378882259775395   1.0
H181   H   0.756345138000000   0.264523529000002   0.404724460598104   1.0
H182   H   0.590886363000003   0.290919811000002   0.403331078855850   1.0
H183   H   0.671674262000003   0.442016144000000   0.434180026225413   1.0
H184   H   0.714000398000003   0.340990042999998   0.480579969897676   1.0
H185   H   0.731667119000001   0.239792211999998   0.461164432133934   1.0
H186   H   0.529623749999999   0.224236189000003   0.446131133644734   1.0
H187   H   0.488254450000000   0.412868637000002   0.448046705566952   1.0
H188   H   0.440710993000003   0.391846145000002   0.483522203664407   1.0
H189   H   0.321314285000000   0.249503414000003   0.465655517925150   1.0
H190   H   0.197326054000001   0.389073385000003   0.485315534442542   1.0
H191   H   0.145918045999998   0.332543647000001   0.449911075350663   1.0
H192   H   0.119326188999999   0.521376447000002   0.447893354814560   1.0
H193   H   0.159232494999998   0.436127982000002   0.401764424665821   1.0
H194   H   0.323218963000002   0.451912978000003   0.406466675244225   1.0
H195   H   0.286137545999999   0.630084336000003   0.415853373057310   1.0
H196   H   0.359159507999998   0.614942374000002   0.367811075344505   1.0
H197   H   0.214992598000002   0.664683865000001   0.364246707142087   1.0
H198   H   0.250979102999999   0.447896946999997   0.359648895542215   1.0
H199   H   0.351016199999997   0.533195568000004   0.312337748438409   1.0
H200   H   0.205137993000001   0.587724512999998   0.307364485514654   1.0
H201   H   0.105993476999998   0.416670142000001   0.295851135820477   1.0
H202   H   0.352166439000001   0.397126710000002   0.264446639533993   1.0
H203   H   0.276218530999998   0.516288567000004   0.256813345458106   1.0
H204   H   0.145550008000001   0.326055519999997   0.249184502512698   1.0
H205   H   0.337278615000002   0.374596263999997   0.212453290789654   1.0
H206   H   0.251015936000002   0.473864720999998   0.201077778868786   1.0
H207   H   0.089127406999999   0.347785649000002   0.179655541181568   1.0
H208   H   0.342247424000000   0.296872303999997   0.161493386620940   1.0
H209   H   0.255239389000003   0.397140884000002   0.146566687876096   1.0
H210   H   0.193295829000000   0.181683374999999   0.140606646556428   1.0
H211   H   0.209554672999999   0.328056312000001   0.088337791922108   1.0
H212   H   0.228831446999997   0.198089869999997   0.089904446112143   1.0
H213   H   0.423964605000002   0.336516883000002   0.115446684568859   1.0
H214   H   0.445403738000003   0.110804913000003   0.109886678291559   1.0
H215   H   0.392008347000001   0.154393824000003   0.140711127949118   1.0
H216   H   0.638678155000001   0.229416714999999   0.116144434026737   1.0
H217   H   0.662334754000000   0.060399117000003   0.130324426769342   1.0
H218   H   0.587601495000001   0.082229286000000   0.164331054166666   1.0
H219   H   0.799858370000003   0.210351963000001   0.160873370536926   1.0
H220   H   0.785108491000003   0.021219029999997   0.193848884959252   1.0
H221   H   0.686598764999999   0.106817767000003   0.207059987477990   1.0
H222   H   0.970037267999999   0.105309812999998   0.206868829214514   1.0
H223   H   0.838016336999999   0.020504578000001   0.247286690341873   1.0
H224   H   0.824655731000000   0.136458130000001   0.263455497192268   1.0
H225   H   0.076880359999997   0.147784123000001   0.256348885662803   1.0
H226   H   0.143838524000003   0.067316024999997   0.296826680354812   1.0
H227   H   0.019252201000000   0.982918304999998   0.298360019400214   1.0
H228   H   0.000453847000003   0.204592445000003   0.315722232296750   1.0
H229   H   0.137627688999999   0.111069313999998   0.356611125057896   1.0
H230   H   0.028426041000003   0.019525715999997   0.351688893437839   1.0
H231   H   0.868353239999998   0.125367891000003   0.381766679507322   1.0
H232   H   0.115995327999997   0.153650751000001   0.417217763542929   1.0
H233   H   0.060179947999998   0.037418357000000   0.409973314240155   1.0
H234   H   0.889553163000002   0.190329577000000   0.436542256955555   1.0
H235   H   0.079005846999998   0.187449962999999   0.462453291247513   1.0
H236   H   0.082033099999997   0.065522672000000   0.467502255199939   1.0
H237   H   0.839975991000003   0.122873988000002   0.489822218041148   1.0
H238   H   0.074902096999999   0.100400784999998   0.526146697997206   1.0
H239   H   0.966310661000001   0.001518314999998   0.517144436240919   1.0
H240   H   0.936535014000000   0.180054120000001   0.560337744519231   1.0
H241   H   0.011633490999998   0.007599470000002   0.571351114915309   1.0
H242   H   0.873054934999999   0.957393758000002   0.565306684733159   1.0
H243   H   0.778032606000004   0.067416072999997   0.606791093509983   1.0
H244   H   0.834906093000001   0.948518855000003   0.643757799253756   1.0
H245   H   0.967138679000001   0.904751390999998   0.621151140253311   1.0
H246   H   0.792671919000000   0.843183963999998   0.586059994562504   1.0
H247   H   0.642699078000000   0.955971941999998   0.588686625741687   1.0
H248   H   0.623587978000003   0.934484687999998   0.628355577686833   1.0
H249   H   0.544741524999999   0.780437323000001   0.614280022744580   1.0
H250   H   0.358046125000001   0.875275143000003   0.619571092614038   1.0
H251   H   0.339891860000002   0.824047503999999   0.587402258994572   1.0
H252   H   0.432365353000002   0.969248587999999   0.561595577674652   1.0
H253   H   0.494805759000002   0.039219070000002   0.611802249951317   1.0
H254   H   0.331481789000002   0.048901653999998   0.618593342543377   1.0
H255   H   0.411193158000003   0.154400911000003   0.561095513548239   1.0
H256   H   0.255193407000000   0.195896085999998   0.615726640148686   1.0
H257   H   0.194639295000002   0.164755147000001   0.583020019720031   1.0
H258   H   0.319280722999998   0.347678250000001   0.586384413404510   1.0
H259   H   0.091344862000000   0.299609082000004   0.613402218107815   1.0
H260   H   0.057143408999998   0.292056228000000   0.577680036898542   1.0
H261   H   0.113566206999998   0.467361873999998   0.571244472756796   1.0
H262   H   0.967396315999999   0.546808075999998   0.600728861162274   1.0
H263   H   0.951818418999999   0.446889462999998   0.625802188693207   1.0
H264   H   0.860743479000000   0.357768075000003   0.582831149464859   1.0
H265   H   0.787712587999998   0.432090688999999   0.538180033513186   1.0
H266   H   0.944300972000001   0.409931780000001   0.538026682760801   1.0
H267   H   0.880958837000001   0.605610069000001   0.561968909468689   1.0
H268   H   0.010060115000002   0.554611131000001   0.503497737941032   1.0
H269   H   0.097123261000000   0.570438922999998   0.534491136158380   1.0
H270   H   0.952757003000002   0.730846026999998   0.503071085656821   1.0
H271   H   0.139725638000002   0.677288855999997   0.481337737748511   1.0
H272   H   0.215222681000000   0.684491706999999   0.517193349192951   1.0
H273   H   0.149690622999998   0.864185194000001   0.514355553226572   1.0
H274   H   0.364404206000003   0.779001059999999   0.479560004777774   1.0
H275   H   0.363125302000000   0.823840337999997   0.514142185259395   1.0
H276   H   0.358745302000003   0.937943277999999   0.454971143565857   1.0
H277   H   0.543527007999998   0.962338768000002   0.502713351670181   1.0
H278   H   0.543103698000003   0.003854936000003   0.468404472720387   1.0
H279   H   0.544124943000000   0.791391795999999   0.479651132779047   1.0
H280   H   0.619520897000001   0.910767942000000   0.422708892758649   1.0
H281   H   0.487564376000002   0.839010649000002   0.428362188981211   1.0
H282   H   0.758194576999998   0.759207392000000   0.437082248122898   1.0
H283   H   0.612417459000000   0.741964871000000   0.379188876451849   1.0
H284   H   0.699241393000001   0.641510385000004   0.389493305942636   1.0
H285   H   0.881216473999999   0.788504822000000   0.397015550321861   1.0
H286   H   0.763503509000003   0.725586724000003   0.339679971983713   1.0
H287   H   0.904137018000000   0.667042019999997   0.358360036428636   1.0
H288   H   0.898091680000000   0.869865916999998   0.328835551325589   1.0
H289   H   0.039771356000003   0.697225359000001   0.310188886853617   1.0
H290   H   0.075684127999999   0.820281708000003   0.303693305497085   1.0
H291   H   0.899103975000003   0.842655143999998   0.271102227131550   1.0
H292   H   0.031232490999997   0.651978835000001   0.258011161398741   1.0
H293   H   0.092439818000003   0.776442826000000   0.250895563958181   1.0
H294   H   0.881262454999998   0.682133553000000   0.216624408869329   1.0
H295   H   0.137793361999997   0.666455956999997   0.205433316073169   1.0
H296   H   0.129217638999997   0.785889345000001   0.199173312387508   1.0
H297   H   0.997429599999997   0.756627897000001   0.152862209886379   1.0
H298   H   0.204383509999999   0.608847316999999   0.157893329259096   1.0
H299   H   0.218838896999998   0.720399112000003   0.140551121708100   1.0
H300   H   0.066906050999997   0.667692141000003   0.102971097783104   1.0
H301   H   0.433359220000000   0.068616531000004   0.397857750627516   1.0
H302   H   0.104190019000001   0.548230095999998   0.115542221286439   1.0


# Number_of_total_atoms: 302
# Number_of_atom_type: 3
# Name_of_each_atom: C Cl H
# Number_of_each_atom: 100 50 152
# Created_by: Lihua Chen (lihua.chen@mse.gatech.edu)
# Tool: VASP
# K-points: 2 1 1
# Pseudopotential: PBE-HSE06
# Material_class: MC_Pol
# Geometry_class: GC_PD
# Bandgap_(eV): 5.97
