#======================================================================

# Note: Disordered slab of syndiotactic polyvinyl chloride
# Common_name: Disordered slab-5

#----------------------------------------------------------------------

data_1
_audit_creation_method   'vasp2cif'
_cell_length_a    10.8492717743
_cell_length_b    13.7847900391
_cell_length_c    45.0
_cell_angle_alpha    90.0
_cell_angle_beta    90.0
_cell_angle_gamma    90.0

_symmetry_space_group_name_H-M    'P 1'
loop_
_atom_site_label
_atom_site_type_symbol
_atom_site_fract_x
_atom_site_fract_y
_atom_site_fract_z
_atom_site_occupancy
C1   C   0.371811854926115   0.018596141128946   0.374128892688887   1.0
C2   C   0.372880920872774   0.967685687425309   0.316264428022222   1.0
C3   C   0.379655715396233   0.895497288024416   0.264328893022224   1.0
C4   C   0.420450927481198   0.873422348896803   0.207351091177777   1.0
C5   C   0.632538993838857   0.822518541076036   0.184902191155558   1.0
C6   C   0.531942322863635   0.650938122637221   0.188677766577776   1.0
C7   C   0.568009278244631   0.542724429953559   0.232171122222219   1.0
C8   C   0.572083367079301   0.385573112678834   0.264117813111113   1.0
C9   C   0.666080476490436   0.390767102053857   0.316426679822222   1.0
C10   C   0.696239176798329   0.388598073950042   0.374393293600001   1.0
C11   C   0.704359401623805   0.376548594231537   0.431860012488890   1.0
C12   C   0.536523299452099   0.262248727020584   0.455282253688885   1.0
C13   C   0.305696780115362   0.286608939112860   0.450068918866670   1.0
C14   C   0.178886325494894   0.455309386736936   0.445828925244442   1.0
C15   C   0.180222976590166   0.568114864701364   0.399571143266669   1.0
C16   C   0.194214702408999   0.493285919822682   0.347766706688887   1.0
C17   C   0.201007780555919   0.430702623410262   0.291317749022220   1.0
C18   C   0.204049370783032   0.394321728991301   0.234108903666666   1.0
C19   C   0.237858119944320   0.334277451882095   0.178844451911111   1.0
C20   C   0.312554378445256   0.283192090262325   0.125584453999998   1.0
C21   C   0.538790779381792   0.293580363104624   0.107128906244448   1.0
C22   C   0.708451905980198   0.223887535990464   0.139917797511110   1.0
C23   C   0.899948717860369   0.141173345149262   0.158962207377776   1.0
C24   C   0.917221841983221   0.134738756029776   0.216217761577781   1.0
C25   C   0.957952533885212   0.124938011976603   0.273942226844447   1.0
C26   C   0.951666475298168   0.101528115990902   0.327188873288890   1.0
C27   C   0.962616270406208   0.132714744280534   0.384675513377779   1.0
C28   C   0.948219304577592   0.135746909216046   0.439500003399999   1.0
C29   C   0.911875633204730   0.144597354428051   0.494997745088888   1.0
C30   C   0.887938471300906   0.115500055313426   0.554882219111114   1.0
C31   C   0.880822968103459   0.056028614132629   0.610457780622220   1.0
C32   C   0.812357389726152   0.873763283142935   0.621002197266669   1.0
C33   C   0.598785579082715   0.824346634933725   0.599424404577775   1.0
C34   C   0.428433145901160   0.939016493271531   0.582271152066667   1.0
C35   C   0.399343511539932   0.122464301538990   0.584488847511111   1.0
C36   C   0.253896021069835   0.269677347384736   0.572879960800002   1.0
C37   C   0.119841044822927   0.423847133066779   0.566128879133331   1.0
C38   C   0.916447599879717   0.480590823524253   0.585671149355555   1.0
C39   C   0.805416987589822   0.554774151823011   0.534364403622220   1.0
C40   C   0.940384410147040   0.688399656874246   0.505786641444445   1.0
C41   C   0.118827005610996   0.805426997981677   0.479106648755554   1.0
C42   C   0.332168512686422   0.885798372798227   0.465995534266668   1.0
C43   C   0.552340016792201   0.817868330748695   0.467864481600003   1.0
C44   C   0.654651087349890   0.714333905273101   0.428615570066668   1.0
C45   C   0.794632800186832   0.751338554350312   0.381911129422221   1.0
C46   C   0.877218979945226   0.771440391825820   0.326853349466667   1.0
C47   C   0.932973907334265   0.775880008883931   0.271304406066669   1.0
C48   C   0.967833438818751   0.749271087024432   0.212191094288890   1.0
C49   C   0.034591078351362   0.695755479321484   0.156037775666668   1.0
C50   C   0.443595387793714   0.974410560110130   0.347008853488887   1.0
C51   C   0.448204097579975   0.917245959723409   0.293375566266668   1.0
C52   C   0.471477422394095   0.889672072205222   0.238364452777780   1.0
C53   C   0.522937099192177   0.891086727919578   0.184275605933337   1.0
C54   C   0.596204771948145   0.726158678340923   0.170688925844445   1.0
C55   C   0.629349903850162   0.605351450064219   0.209306674533330   1.0
C56   C   0.648503167066615   0.465682975423768   0.247013346355558   1.0
C57   C   0.636557660336202   0.333769647992433   0.288624403222222   1.0
C58   C   0.678661867282337   0.336663991604979   0.344815572111109   1.0
C59   C   0.691510744322194   0.320196756677490   0.401933373355554   1.0
C60   C   0.657360890884327   0.316315585557128   0.459264458555552   1.0
C61   C   0.426580520174923   0.331288465768914   0.460406663688886   1.0
C62   C   0.185532079652404   0.347835953061278   0.455853356244447   1.0
C63   C   0.201026064179381   0.467112297955637   0.412988874644448   1.0
C64   C   0.226290548626096   0.583624640214346   0.367924414733331   1.0
C65   C   0.224437922899860   0.510979355798725   0.315637800422223   1.0
C66   C   0.238890442779713   0.462193657279379   0.258926645911110   1.0
C67   C   0.270035405227837   0.408054294918173   0.203342225822219   1.0
C68   C   0.326647554391144   0.351441222046809   0.153391096333330   1.0
C69   C   0.401011894393321   0.300979909250103   0.099508878911109   1.0
C70   C   0.577973206722859   0.209719946897991   0.129531097422223   1.0
C71   C   0.762335792213449   0.129326986914080   0.151975546933336   1.0
C72   C   0.957795716447563   0.097799424378323   0.186537721422219   1.0
C73   C   0.996369992832761   0.091683916288545   0.241962178555553   1.0
C74   C   0.011308261379405   0.068129016933604   0.300197770866667   1.0
C75   C   0.020829646514649   0.085488709342499   0.356448872888890   1.0
C76   C   0.017124393679595   0.090392683201244   0.413395521377780   1.0
C77   C   0.997696963646980   0.107599909015143   0.470419989688892   1.0
C78   C   0.942209610438077   0.086932421937583   0.524333360466663   1.0
C79   C   0.926374213871924   0.040518877503082   0.577462259933334   1.0
C80   C   0.894234023336182   0.960286141207291   0.629195573600001   1.0
C81   C   0.677454487351916   0.898682200589313   0.614866638177780   1.0
C82   C   0.457209145387090   0.844593480203642   0.599659983311113   1.0
C83   C   0.411547142876145   0.029042510394753   0.602666642933336   1.0
C84   C   0.270440985721301   0.172664379018386   0.587846628822220   1.0
C85   C   0.136966493319861   0.322517987607320   0.581346639000003   1.0
C86   C   0.050629001413824   0.502702291318499   0.584246656622220   1.0
C87   C   0.831077734853935   0.469027285773741   0.556122250022220   1.0
C88   C   0.917691591115329   0.580686572976099   0.514048851866669   1.0
C89   C   0.066242890025343   0.701870987411262   0.488473341199999   1.0
C90   C   0.263804549239865   0.802489207425189   0.481475575755553   1.0
C91   C   0.467532549697537   0.904623367249641   0.476242234977775   1.0
C92   C   0.584637244503838   0.812166537556557   0.434586673311110   1.0
C93   C   0.696460382612869   0.693702402058811   0.398055521644444   1.0
C94   C   0.810624662554133   0.707522138555312   0.348864407000001   1.0
C95   C   0.891081500594424   0.714159840597958   0.298388926177779   1.0
C96   C   0.960044956719877   0.705672182848502   0.244155587088891   1.0
C97   C   0.037466709236917   0.678707659925365   0.189624447288892   1.0
C98   C   0.131150524440777   0.637205556782895   0.107297770177780   1.0
C99   C   0.134477807575628   0.635587779512676   0.140133327911109   1.0
C100   C   0.440682837932549   0.035854268407284   0.401795535622220   1.0
Cl101   Cl   0.260090002140451   0.929324496322643   0.387035539422222   1.0
Cl102   Cl   0.369848472549570   0.091734835090932   0.303484429244442   1.0
Cl103   Cl   0.293981708943392   0.783453619631999   0.267400021022219   1.0
Cl104   Cl   0.317651472531424   0.973598073959216   0.201417795822223   1.0
Cl105   Cl   0.766520286154098   0.882432200599133   0.164680014711109   1.0
Cl106   Cl   0.468509494253866   0.564705245485790   0.162653350822225   1.0
Cl107   Cl   0.514955056544380   0.619686185554535   0.262168841888887   1.0
Cl108   Cl   0.533030024070264   0.296308113755401   0.235384453666668   1.0
Cl109   Cl   0.807693653297335   0.445820511416457   0.308246697311112   1.0
Cl110   Cl   0.570138444098390   0.466647941082456   0.377813296844444   1.0
Cl111   Cl   0.862554440028653   0.407974595989359   0.435255516888887   1.0
Cl112   Cl   0.516761621483276   0.166382278039379   0.482299974222222   1.0
Cl113   Cl   0.313955362890681   0.264664323696742   0.411964416511111   1.0
Cl114   Cl   0.277575124270889   0.524646647390803   0.470262230777777   1.0
Cl115   Cl   0.021032527412629   0.592446037178320   0.402411142977776   1.0
Cl116   Cl   0.033835119871320   0.456839993364973   0.345677778466666   1.0
Cl117   Cl   0.294230472091385   0.325688233354704   0.300411139600001   1.0
Cl118   Cl   0.048591962480728   0.424666814249292   0.225104437933332   1.0
Cl119   Cl   0.265675634361735   0.208747786135149   0.192555533511111   1.0
Cl120   Cl   0.161760876997960   0.313950630929057   0.111342239377777   1.0
Cl121   Cl   0.623718144938501   0.272724153167111   0.073346667822221   1.0
Cl122   Cl   0.717023772086485   0.313254095619286   0.169537777377776   1.0
Cl123   Cl   0.997826004012929   0.096101948179289   0.129117796155555   1.0
Cl124   Cl   0.763699681911099   0.096566028370710   0.223433303822219   1.0
Cl125   Cl   0.008229750241071   0.244374031410345   0.272844441733334   1.0
Cl126   Cl   0.794522043444353   0.050856209852420   0.330897776288886   1.0
Cl127   Cl   0.002607354630662   0.259724115118530   0.381895531555557   1.0
Cl128   Cl   0.797112344027163   0.081404416666274   0.437324439155553   1.0
Cl129   Cl   0.940227944345892   0.268095787423491   0.501311069066666   1.0
Cl130   Cl   0.726867977782668   0.119961534220650   0.548842196999999   1.0
Cl131   Cl   0.979668232680602   0.140875857847071   0.629166666666670   1.0
Cl132   Cl   0.822450314604247   0.780087724187204   0.649397786466665   1.0
Cl133   Cl   0.649572452751528   0.800617389869259   0.563768853088888   1.0
Cl134   Cl   0.280008431551714   0.919748727041750   0.563124423555557   1.0
Cl135   Cl   0.507166574353327   0.206020035411825   0.598571099177775   1.0
Cl136   Cl   0.255167987178439   0.248864290443990   0.534262254511113   1.0
Cl137   Cl   0.265085810995416   0.481352667699625   0.564282226555555   1.0
Cl138   Cl   0.839732580538829   0.561498747753532   0.608060031466664   1.0
Cl139   Cl   0.676560346694203   0.523507582453618   0.510757785377777   1.0
Cl140   Cl   0.966496974464128   0.768611080397115   0.536053297244443   1.0
Cl141   Cl   0.073054427660068   0.816809276097985   0.441775597466666   1.0
Cl142   Cl   0.256919349610435   0.995927053372540   0.478460015200000   1.0
Cl143   Cl   0.691068244945292   0.846066249751992   0.485053337955556   1.0
Cl144   Cl   0.547390422467608   0.621993026348612   0.437860022644443   1.0
Cl145   Cl   0.739486155651917   0.874118884206574   0.377100033222220   1.0
Cl146   Cl   0.019788184540509   0.815082742945684   0.340851084400001   1.0
Cl147   Cl   0.802504261956493   0.853015829087497   0.261291122444447   1.0
Cl148   Cl   0.061007608323344   0.856396391422351   0.215208901288889   1.0
Cl149   Cl   0.889376550494106   0.649059110049684   0.142633353333331   1.0
Cl150   Cl   0.275630201289978   0.585409287128094   0.091826672022222   1.0
H151   H   0.379157837648087   0.069195262335839   0.418713294133333   1.0
H152   H   0.488934789481966   0.970021585100113   0.408477783199999   1.0
H153   H   0.336408560770472   0.090196756676981   0.367777760822222   1.0
H154   H   0.480501105553358   0.902374640217019   0.351208919955553   1.0
H155   H   0.523176720436261   0.022339499559045   0.344546678333330   1.0
H156   H   0.279630452357779   0.937006862952792   0.317599995933335   1.0
H157   H   0.487423224066227   0.848300586648868   0.301760016555555   1.0
H158   H   0.532910125516054   0.960025182644280   0.287359958222225   1.0
H159   H   0.323126545903690   0.959299590453782   0.258006668088889   1.0
H160   H   0.543555954877029   0.835605213668678   0.243042161733335   1.0
H161   H   0.528264628744616   0.954889030348944   0.238488896688892   1.0
H162   H   0.361709766299334   0.806254150950103   0.204684448244443   1.0
H163   H   0.557907211554806   0.966249169789286   0.187404463022219   1.0
H164   H   0.492170115937988   0.890071120212802   0.161346689866669   1.0
H165   H   0.668062142582620   0.811143458063874   0.207053332866664   1.0
H166   H   0.687814634773630   0.696945151630850   0.164757834533333   1.0
H167   H   0.546459538698628   0.740195926529047   0.150595601399999   1.0
H168   H   0.451383869892595   0.676574883806424   0.200655534533333   1.0
H169   H   0.673527898278820   0.664931647127098   0.220253329800002   1.0
H170   H   0.707419627110887   0.571023875058884   0.196679984200003   1.0
H171   H   0.487653703498580   0.504610049501643   0.223088879044447   1.0
H172   H   0.707014002651334   0.510087205249818   0.261653349133333   1.0
H173   H   0.709032675559122   0.430978248863333   0.232268905644446   1.0
H174   H   0.481266205845131   0.422570290042685   0.271095530200000   1.0
H175   H   0.717125255118980   0.301168363988445   0.276557752822221   1.0
H176   H   0.588738758865880   0.264722437458197   0.291711086688892   1.0
H177   H   0.601486064941078   0.450753542155923   0.318506707088886   1.0
H178   H   0.758326047697409   0.280761861444546   0.344468858511114   1.0
H179   H   0.594656287648974   0.293950354231477   0.346644422733334   1.0
H180   H   0.783544471356784   0.426843314139020   0.375917816155557   1.0
H181   H   0.760925490091950   0.264330861163984   0.399446699355558   1.0
H182   H   0.602601411413332   0.282263670608223   0.398262193466664   1.0
H183   H   0.652660147639899   0.443063980494166   0.428208923333337   1.0
H184   H   0.675067240766261   0.362663825551195   0.479177771666670   1.0
H185   H   0.734260197064145   0.263895578509476   0.462431081133332   1.0
H186   H   0.530301673115865   0.230764888183067   0.434526655399999   1.0
H187   H   0.441189681720260   0.396266050444439   0.445346662733336   1.0
H188   H   0.417695019285510   0.352573057349033   0.484431118444448   1.0
H189   H   0.278930048021152   0.213180208089106   0.460173373755552   1.0
H190   H   0.174204129578271   0.344223212289840   0.479166666666664   1.0
H191   H   0.106448273213665   0.309460095213645   0.448542192244446   1.0
H192   H   0.088926391473151   0.469999446536583   0.453633371999999   1.0
H193   H   0.138579497709834   0.411913604189415   0.401655578622226   1.0
H194   H   0.297161679149475   0.442781160082035   0.407557763000000   1.0
H195   H   0.230917541943654   0.625344531802732   0.412911139599998   1.0
H196   H   0.331827650085046   0.596080363044578   0.366544426822223   1.0
H197   H   0.183725525589814   0.640245184871617   0.355746629511110   1.0
H198   H   0.243148774579410   0.430941996878453   0.358386654333330   1.0
H199   H   0.318674653555085   0.535687679903326   0.315413326688890   1.0
H200   H   0.170176101438763   0.575129822036637   0.306428866911112   1.0
H201   H   0.101839739291748   0.408946756679654   0.291457790800003   1.0
H202   H   0.338933967596852   0.484160117351756   0.258468882244443   1.0
H203   H   0.188103569110901   0.533874287393971   0.254860051466665   1.0
H204   H   0.213220553703870   0.319775846820789   0.244602203377781   1.0
H205   H   0.370456931175852   0.408627407600889   0.208871163266664   1.0
H206   H   0.255066548112033   0.485501992487144   0.197595553933333   1.0
H207   H   0.140091238897746   0.334509630318685   0.173322211377780   1.0
H208   H   0.413538126552225   0.343998228884857   0.166013378577780   1.0
H209   H   0.316766649457605   0.425892738543538   0.144620005288885   1.0
H210   H   0.315245766457970   0.203140081935032   0.130266655822226   1.0
H211   H   0.388799121245370   0.376127961056596   0.090646659000001   1.0
H212   H   0.375554025262019   0.251345489932916   0.081862216533331   1.0
H213   H   0.562064280060255   0.362242915621948   0.115137778377779   1.0
H214   H   0.570000217954629   0.130908235590205   0.120411131111112   1.0
H215   H   0.517139600769383   0.208355933159176   0.150762218888886   1.0
H216   H   0.766170083939699   0.255023245550248   0.121268886999999   1.0
H217   H   0.735670147549143   0.068499008060456   0.136366653444448   1.0
H218   H   0.701234831818091   0.121470278927028   0.171542231244445   1.0
H219   H   0.932337847316269   0.216669526233495   0.159713321266665   1.0
H220   H   0.055984181670034   0.101150929832443   0.183206727777780   1.0
H221   H   0.940403045407010   0.017870821340132   0.185011121955554   1.0
H222   H   0.924060980917481   0.215987657741238   0.216520012755552   1.0
H223   H   0.091774607984163   0.113548538828681   0.236206648088888   1.0
H224   H   0.981990959083276   0.012161556362081   0.240626653044444   1.0
H225   H   0.860102673260030   0.131967558289972   0.276884460444442   1.0
H226   H   0.105591227211555   0.086779942429800   0.299442206488891   1.0
H227   H   0.007077710153958   0.986684746479320   0.294377814400001   1.0
H228   H   0.940301430568432   0.182377961062088   0.325360022644446   1.0
H229   H   0.116430617121445   0.100135322125666   0.353564453133330   1.0
H230   H   0.017271896206331   0.002962975923765   0.358415561244442   1.0
H231   H   0.860517571337397   0.125917359065795   0.381891123444447   1.0
H232   H   0.116550339903490   0.111807615685720   0.414302232533330   1.0
H233   H   0.006340204248815   0.009187234962653   0.414924452044446   1.0
H234   H   0.956348847079134   0.216872647789359   0.436795552577777   1.0
H235   H   0.093406055363140   0.146382001341806   0.471397738977778   1.0
H236   H   0.017539113311806   0.030674677800725   0.472311147044444   1.0
H237   H   0.810670723249302   0.135805014417343   0.492866685644444   1.0
H238   H   0.042453230648256   0.093925448289568   0.525600009488890   1.0
H239   H   0.910640432236519   0.012829037983053   0.520384470622226   1.0
H240   H   0.914087954501433   0.187535975206536   0.561211140955557   1.0
H241   H   0.032148453394470   0.034026183182306   0.576493326822224   1.0
H242   H   0.887201148080841   0.967112574742586   0.571428849955552   1.0
H243   H   0.785618258931478   0.091357372178173   0.612273322222222   1.0
H244   H   0.876066758555623   0.977950520230060   0.653335571288892   1.0
H245   H   0.994812015085351   0.937420301096125   0.627266693111110   1.0
H246   H   0.839603540172881   0.837469559438695   0.599619971377777   1.0
H247   H   0.683030823926259   0.964384824019270   0.599173312711109   1.0
H248   H   0.626916508637173   0.924493026361105   0.634720018177781   1.0
H249   H   0.602619870808965   0.754385377470641   0.610775587288892   1.0
H250   H   0.425843021182693   0.844259740989123   0.622899966777780   1.0
H251   H   0.401611035435707   0.782641133481086   0.588055589466670   1.0
H252   H   0.492852236651153   0.953343756903386   0.562506696911115   1.0
H253   H   0.473846209584117   0.030703732505138   0.622099982377776   1.0
H254   H   0.322241722829880   0.011073443669943   0.614657762311111   1.0
H255   H   0.419851962210977   0.108274573843090   0.561322191022221   1.0
H256   H   0.239959684590716   0.176385875599358   0.610937754311109   1.0
H257   H   0.202906466977325   0.118916869633153   0.579635535355557   1.0
H258   H   0.338721969497080   0.313239705556072   0.575504472511113   1.0
H259   H   0.126965865696441   0.320428935114080   0.606920030377779   1.0
H260   H   0.065367208855434   0.275386301077667   0.572740003800000   1.0
H261   H   0.097083705516077   0.411964522919263   0.542517768022222   1.0
H262   H   0.065127587519171   0.570530461304976   0.572635565866669   1.0
H263   H   0.091074022345040   0.507330363042406   0.607480027933335   1.0
H264   H   0.905672554288465   0.407444930250584   0.594288889577776   1.0
H265   H   0.745892112793179   0.424746789932413   0.561346689866667   1.0
H266   H   0.883320795567251   0.418573168008635   0.542455546066670   1.0
H267   H   0.784097551704008   0.622159895919602   0.546875593400003   1.0
H268   H   0.908087402173649   0.542825990731487   0.493179999466669   1.0
H269   H   0.004598161151996   0.552060825766254   0.523693339022223   1.0
H270   H   0.871725447085154   0.718091653766407   0.489835527200000   1.0
H271   H   0.050297082915058   0.654753708210215   0.470248921711111   1.0
H272   H   0.134284247118877   0.665120378547208   0.502342224111111   1.0
H273   H   0.070547276989878   0.863629067996833   0.492388916022222   1.0
H274   H   0.278653507801451   0.730278946175176   0.471017795133335   1.0
H275   H   0.297290675549334   0.801176112488768   0.505155520977780   1.0
H276   H   0.323587328904068   0.887887702045774   0.441962263311112   1.0
H277   H   0.483257013749046   0.926422680996730   0.500184461800004   1.0
H278   H   0.503470464804764   0.971073444791763   0.464766693111109   1.0
H279   H   0.513766092043504   0.750917644421072   0.474793328177775   1.0
H280   H   0.640788390836356   0.874082632294247   0.427711147733334   1.0
H281   H   0.500705238933008   0.817092096510116   0.419324408644442   1.0
H282   H   0.727826462851191   0.706694985586886   0.444586690266668   1.0
H283   H   0.614040118229944   0.704025625379323   0.385199991866663   1.0
H284   H   0.716728992209404   0.616066249751491   0.398051113555553   1.0
H285   H   0.881403473885875   0.756880949757374   0.391217803955556   1.0
H286   H   0.716139036944838   0.685287524888317   0.340782250288889   1.0
H287   H   0.862711257466302   0.638322725267599   0.350673336444444   1.0
H288   H   0.819270366427290   0.837571120216630   0.321839989555556   1.0
H289   H   0.807057593279339   0.676973931814004   0.292991129555553   1.0
H290   H   0.953777181756294   0.656690834631746   0.305446624755554   1.0
H291   H   0.010589392762021   0.824984779727735   0.275851101355556   1.0
H292   H   0.880998069164576   0.649951295129405   0.244164445666669   1.0
H293   H   0.048582644896825   0.670212807144303   0.251126607266670   1.0
H294   H   0.879053321955830   0.775502822652925   0.204460016888888   1.0
H295   H   0.000560986960842   0.602145229158815   0.193151134911112   1.0
H296   H   0.128883000545002   0.674681481083134   0.197895558666666   1.0
H297   H   0.039301051339692   0.773580363048914   0.149697748822220   1.0
H298   H   0.117923723049380   0.560200319634625   0.146642218688889   1.0
H299   H   0.221387015088851   0.653295605479386   0.151133346555554   1.0
H300   H   0.122117534666096   0.711475813572882   0.099244435622225   1.0
H301   H   0.517637302745356   0.088404914731626   0.398053317600002   1.0
H302   H   0.061016750135075   0.593091653758243   0.095804426400001   1.0


# Number_of_total_atoms: 302
# Number_of_atom_type: 3
# Name_of_each_atom: C Cl H
# Number_of_each_atom: 100 50 152
# Created_by: Lihua Chen (lihua.chen@mse.gatech.edu)
# Tool: VASP
# K-points: 2 1 1
# Pseudopotential: PBE-HSE06
# Material_class: MC_Pol
# Geometry_class: GC_PD
# Bandgap_(eV): 5.85
