#======================================================================

# Note: Disordered slab of polyvinylidene fluoride
# Common_name: Disordered slab-1

#----------------------------------------------------------------------

data_1
_audit_creation_method   'vasp2cif'
_cell_length_a    23.2290154
_cell_length_b    11.6705075
_cell_length_c    35.0
_cell_angle_alpha    90.0
_cell_angle_beta    90.0
_cell_angle_gamma    90.0

_symmetry_space_group_name_H-M    'P 1'
loop_
_atom_site_label
_atom_site_type_symbol
_atom_site_fract_x
_atom_site_fract_y
_atom_site_fract_z
_atom_site_occupancy
C1   C   0.037102622954912   0.483938029258795   0.038725717142860   1.0
C2   C   0.106722444206568   0.609339679529789   0.999911394285711   1.0
C3   C   0.198560167987147   0.621892664050812   0.047082848571428   1.0
C4   C   0.255910898401659   0.802021891507287   0.017914254285714   1.0
C5   C   0.356793306013309   0.788552057397673   0.053082822857142   1.0
C6   C   0.392498693681176   0.999725427536035   0.035122899999998   1.0
C7   C   0.508504484438888   0.021961667048323   0.049045671428573   1.0
C8   C   0.528750658971106   0.864178485811351   0.104671480000000   1.0
C9   C   0.639612060354480   0.845841931038564   0.091705757142854   1.0
C10   C   0.659858230581740   0.698016260218331   0.150111388571432   1.0
C11   C   0.752302996880360   0.602364678656862   0.120791408571428   1.0
C12   C   0.796282424437152   0.536446508431617   0.183879962857141   1.0
C13   C   0.894319373519380   0.445610647180509   0.155022865714287   1.0
C14   C   0.964838922961839   0.492695103447730   0.209334237142855   1.0
C15   C   0.055295378554874   0.364208977201720   0.189617157142855   1.0
C16   C   0.125797729679064   0.456201446252443   0.234245737142857   1.0
C17   C   0.199360907910027   0.278068712950145   0.236057174285712   1.0
C18   C   0.286071436329585   0.429518844831726   0.230465697142854   1.0
C19   C   0.306403748821829   0.396958212828359   0.157505691428568   1.0
C20   C   0.420963077066105   0.452105651789353   0.152585711428571   1.0
C21   C   0.427622825546017   0.453356728488458   0.078077154285715   1.0
C22   C   0.537489776686790   0.426974028335955   0.079317148571427   1.0
C23   C   0.555475855425193   0.455824410378042   0.006368582857142   1.0
C24   C   0.659686045065861   0.374020032976290   0.003282820000003   1.0
C25   C   0.687840544459753   0.229981592488585   0.056162805714287   1.0
C26   C   0.792326169795388   0.155117744451132   0.030117142857144   1.0
C27   C   0.820420317944254   0.067195244080004   0.095442854285714   1.0
C28   C   0.920932572114097   0.953369225802732   0.076311385714284   1.0
C29   C   0.982071637870625   0.007582969292464   0.138339999999999   1.0
C30   C   0.070586633646123   0.872901576902287   0.125488608571430   1.0
C31   C   0.151463901479012   0.974182450934549   0.167105759999998   1.0
C32   C   0.227179573009366   0.805963579561556   0.171597179999999   1.0
C33   C   0.316145926701651   0.940113495492803   0.189665768571430   1.0
C34   C   0.403222342346894   0.812964072042284   0.219322859999998   1.0
C35   C   0.484258945387758   0.939925208908008   0.258377182857146   1.0
C36   C   0.415947759025549   0.092738220681490   0.283857182857140   1.0
C37   C   0.478275049918821   0.240195518489664   0.328085762857143   1.0
C38   C   0.384599082060106   0.331331109636835   0.358131408571431   1.0
C39   C   0.424807415642768   0.528666264084919   0.375877162857144   1.0
C40   C   0.333408780640781   0.617291364578620   0.411579894285715   1.0
C41   C   0.309679798137289   0.722916616950890   0.345517185714286   1.0
C42   C   0.196136509513870   0.677477290512002   0.354300037142856   1.0
C43   C   0.152376561771966   0.860716973961928   0.323162842857144   1.0
C44   C   0.046883515346934   0.809587869250763   0.309479959999997   1.0
C45   C   0.000458176974647   0.016837545410944   0.295877185714289   1.0
C46   C   0.901680921008818   0.947979528739431   0.267200034285715   1.0
C47   C   0.846999193086766   0.141493623991927   0.270797185714287   1.0
C48   C   0.760172478081010   0.091804362406691   0.225091445714284   1.0
C49   C   0.684831351052445   0.224206359492079   0.250345719999999   1.0
C50   C   0.624195952791005   0.219339476025354   0.187282888571431   1.0
C51   C   0.055144704927962   0.604515459160623   0.028048599999998   1.0
C52   C   0.169910705728839   0.566753562345085   0.011142839999998   1.0
C53   C   0.212047653126099   0.752101217534886   0.046560014285717   1.0
C54   C   0.315698176341989   0.760318640813175   0.018560028571429   1.0
C55   C   0.367189825015139   0.911228950411967   0.065822820000001   1.0
C56   C   0.457352940581373   0.988723429550944   0.022377122857144   1.0
C57   C   0.517463077664495   0.992322227632343   0.091217151428573   1.0
C58   C   0.578378229496543   0.804438418809120   0.085317119999999   1.0
C59   C   0.663306547207334   0.816742648081075   0.131448582857146   1.0
C60   C   0.688490533266425   0.594481653861237   0.127928597142855   1.0
C61   C   0.790410531132544   0.634976799423676   0.153454262857146   1.0
C62   C   0.830291653257071   0.431626645199451   0.173702894285711   1.0
C63   C   0.936099056527382   0.525144446374760   0.172322845714284   1.0
C64   C   0.998288485356980   0.376616329666895   0.209785680000003   1.0
C65   C   0.101780370768537   0.450580491036916   0.195088522857141   1.0
C66   C   0.148609738318910   0.345546532573671   0.252297102857142   1.0
C67   C   0.261993812273246   0.312368772309171   0.241545760000001   1.0
C68   C   0.282179721659659   0.478642629722828   0.191014317142859   1.0
C69   C   0.371753040380696   0.365082846654268   0.155651419999998   1.0
C70   C   0.423955024800577   0.522513986645393   0.114362880000002   1.0
C71   C   0.480246691816305   0.368416069309753   0.076559994285716   1.0
C72   C   0.557090232933419   0.507270416475031   0.046968622857143   1.0
C73   C   0.594711263569096   0.358982049409590   0.999074337142858   1.0
C74   C   0.689347310863639   0.354115174511477   0.042179980000000   1.0
C75   C   0.725939412825909   0.140602583049621   0.033822848571425   1.0
C76   C   0.824665108276605   0.166479786761627   0.067977142857146   1.0
C77   C   0.857111610507609   0.960541004750652   0.089351437142859   1.0
C78   C   0.964158717635527   0.028370865620026   0.096622902857142   1.0
C79   C   0.015564930057259   0.895291271609224   0.147848619999998   1.0
C80   C   0.125031472491941   0.950755928994518   0.127548545714284   1.0
C81   C   0.177801698818456   0.875154992188641   0.190731377142861   1.0
C82   C   0.280836556679887   0.874306777147439   0.159011405714288   1.0
C83   C   0.344356257131757   0.869808112457832   0.222779957142855   1.0
C84   C   0.457964171826241   0.891898068700094   0.219379971428573   1.0
C85   C   0.443361783642366   0.971765923632709   0.290808542857143   1.0
C86   C   0.451829607035343   0.206332321023744   0.287988608571432   1.0
C87   C   0.435182336656425   0.249158196419479   0.362531391428568   1.0
C88   C   0.396485083048333   0.455053329943020   0.345665740000001   1.0
C89   C   0.392907604684787   0.553335208430312   0.410985674285712   1.0
C90   C   0.320334636310072   0.725204358079544   0.390368542857146   1.0
C91   C   0.252565961103976   0.658926306332440   0.331862860000001   1.0
C92   C   0.170814747490333   0.796717829108971   0.359022848571428   1.0
C93   C   0.107747020564631   0.819904755641517   0.293931471428572   1.0
C94   C   0.013119716645413   0.916318591972114   0.323728617142855   1.0
C95   C   0.961562873646379   0.988457691321479   0.261088562857140   1.0
C96   C   0.855208774798093   0.021995821518473   0.286851391428570   1.0
C97   C   0.817381075910774   0.156642896634956   0.230082811428574   1.0
C98   C   0.707600340219329   0.097913659710173   0.250705719999999   1.0
C99   C   0.666595489880301   0.279962418086790   0.212814331428568   1.0
C100   C   0.027756548820406   0.410162308708514   0.003934260000001   1.0
F101   F   0.620541045403073   0.290707332136158   0.157097191428569   1.0
F102   F   0.638001949062378   0.116738882178005   0.172454288571430   1.0
F103   F   0.986699556796538   0.485026328118124   0.058057185714283   1.0
F104   F   0.081073518079464   0.438558665936334   0.059194291428568   1.0
F105   F   0.097686335857354   0.548408344709948   0.967579977142854   1.0
F106   F   0.110377351594508   0.718041079190428   0.986020008571430   1.0
F107   F   0.164981482598698   0.599777207632144   0.079268537142859   1.0
F108   F   0.252419557998138   0.568767390792559   0.047488622857145   1.0
F109   F   0.233761888159925   0.790694337842638   0.982657188571430   1.0
F110   F   0.258338904885306   0.914287771975637   0.023122842857141   1.0
F111   F   0.333382916436484   0.735066902617561   0.083997125714283   1.0
F112   F   0.409115829334724   0.743241174387663   0.045605688571428   1.0
F113   F   0.357990067887251   0.986084306959228   0.003765760000000   1.0
F114   F   0.386200484416570   0.105805364505358   0.050091445714287   1.0
F115   F   0.555213270038124   0.988758243803879   0.030065700000001   1.0
F116   F   0.512675952679423   0.136472462744230   0.049362837142859   1.0
F117   F   0.534058701429075   0.862396412495343   0.142400034285714   1.0
F118   F   0.478649555675958   0.804172672011049   0.096408517142855   1.0
F119   F   0.673913927492599   0.802116034799688   0.064711434285712   1.0
F120   F   0.641807530077230   0.957781921651652   0.083077131428574   1.0
F121   F   0.678317928189067   0.709609560681059   0.186508614285714   1.0
F122   F   0.603656967742161   0.675472287730415   0.153065708571425   1.0
F123   F   0.768967512932122   0.501212427994240   0.107265691428573   1.0
F124   F   0.763973706780533   0.678771013171449   0.092622811428569   1.0
F125   F   0.825457143568812   0.585921666217175   0.213337162857144   1.0
F126   F   0.744739129149657   0.504896860740629   0.199242839999997   1.0
F127   F   0.920459121138641   0.343438569402402   0.147077179999997   1.0
F128   F   0.883828265919526   0.492823726817363   0.122982897142855   1.0
F129   F   0.000742278555634   0.576016304346659   0.220782908571429   1.0
F130   F   0.925000824615232   0.487116965564695   0.236434282857139   1.0
F131   F   0.077177528583498   0.256964266549680   0.196802851428572   1.0
F132   F   0.046457319925835   0.355006215453784   0.152940042857146   1.0
F133   F   0.169953738116682   0.532762067116622   0.232140022857145   1.0
F134   F   0.083949231873170   0.497116624962537   0.256908525714287   1.0
F135   F   0.199429800197216   0.172057916076056   0.252505711428569   1.0
F136   F   0.191749750185281   0.263022237893253   0.196534297142854   1.0
F137   F   0.267297502415879   0.509412534116450   0.256645748571430   1.0
F138   F   0.343172470409570   0.418208291284678   0.235951451428569   1.0
F139   F   0.278688463050393   0.298170675097033   0.159997122857142   1.0
F140   F   0.291827147352961   0.440366727839383   0.123485674285718   1.0
F141   F   0.423421222580103   0.527689425674076   0.183314297142857   1.0
F142   F   0.471016881757286   0.393016533342703   0.154377094285714   1.0
F143   F   0.378275086080485   0.393659153211630   0.073939951428571   1.0
F144   F   0.431393997009444   0.522942348479702   0.047942897142860   1.0
F145   F   0.543370292827824   0.484195104625911   0.113217165714289   1.0
F146   F   0.575498283926400   0.339839771320996   0.079565757142859   1.0
F147   F   0.502701397322248   0.415697637827662   0.997731457142855   1.0
F148   F   0.572131748640537   0.545066467760719   0.983525739999997   1.0
F149   F   0.691159656297785   0.303757313038872   0.979568591428574   1.0
F150   F   0.674701778362937   0.482532829013650   0.993057142857140   1.0
F151   F   0.708749721695050   0.233152037304294   0.093205697142856   1.0
F152   F   0.635195161995547   0.187498435693563   0.057577188571429   1.0
F153   F   0.810303797895799   0.059534968809196   0.009762899999998   1.0
F154   F   0.803226356292313   0.249955094069385   0.007780019999998   1.0
F155   F   0.840787194966516   0.114331180542059   0.128074320000003   1.0
F156   F   0.766552472990313   0.033366363887772   0.100954328571426   1.0
F157   F   0.933847583569985   0.843528372695019   0.078565762857146   1.0
F158   F   0.924411105259331   0.983556327777521   0.038925717142860   1.0
F159   F   0.022345213133740   0.086834518550283   0.146611460000003   1.0
F160   F   0.936426186191255   0.024206582275880   0.161388617142855   1.0
F161   F   0.076652310454797   0.760438601320466   0.134348625714288   1.0
F162   F   0.054666862892518   0.866140671260439   0.089745765714284   1.0
F163   F   0.191891800975775   0.056244563486210   0.163454328571426   1.0
F164   F   0.112039066451345   0.029219243464773   0.187391445714283   1.0
F165   F   0.244924578249666   0.720011756129715   0.195025745714283   1.0
F166   F   0.206020656389938   0.751946939753907   0.140545765714286   1.0
F167   F   0.362122860360238   0.989263089030189   0.170965685714286   1.0
F168   F   0.282648983908288   0.025414687407554   0.204571425714285   1.0
F169   F   0.409559227379049   0.733532916199231   0.246237182857143   1.0
F170   F   0.397699086290160   0.759615877887057   0.184608568571427   1.0
F171   F   0.514225704116583   0.853442234624332   0.271137128571425   1.0
F172   F   0.522508448636181   0.016606287258718   0.249754334285711   1.0
F173   F   0.390961831296558   0.093406666333920   0.249917168571429   1.0
F174   F   0.371309642336371   0.100210063701169   0.307034302857140   1.0
F175   F   0.518685703742740   0.159633400689728   0.336514282857145   1.0
F176   F   0.504091860905994   0.341176491253698   0.325820051428572   1.0
F177   F   0.354787181380061   0.287502732850307   0.330919974285713   1.0
F178   F   0.351584290567907   0.332847770330467   0.391640037142857   1.0
F179   F   0.475842686814872   0.475300907008545   0.385331399999998   1.0
F180   F   0.437145437511745   0.626468137739508   0.357611411428572   1.0
F181   F   0.291814253995455   0.537980323477790   0.400991385714285   1.0
F182   F   0.323348095933504   0.651300185531781   0.447391402857143   1.0
F183   F   0.304104899771168   0.832260636480463   0.337311445714285   1.0
F184   F   0.352372141438245   0.687108396957029   0.324622891428568   1.0
F185   F   0.155407262763276   0.612475635699646   0.335291400000003   1.0
F186   F   0.200695454358346   0.633537281904836   0.390428597142858   1.0
F187   F   0.141269784512694   0.969941032984210   0.337660000000000   1.0
F188   F   0.198745324349822   0.878273948240896   0.299157171428568   1.0
F189   F   0.014574758945656   0.761620880668644   0.281177194285718   1.0
F190   F   0.043732275454083   0.731562239259944   0.338779994285716   1.0
F191   F   0.977762475459890   0.105694066860416   0.316705757142856   1.0
F192   F   0.054796024630470   0.045910848349998   0.283502851428573   1.0
F193   F   0.880181895268791   0.921082669284090   0.231860025714283   1.0
F194   F   0.903876390731568   0.843494063989937   0.284282902857143   1.0
F195   F   0.814186812240003   0.200437118951342   0.296154240000000   1.0
F196   F   0.898473682186285   0.195244517001512   0.267297145714288   1.0
F197   F   0.742466144303300   0.117672903256349   0.189442880000001   1.0
F198   F   0.770762612693431   0.981482681879946   0.223671397142859   1.0
F199   F   0.639246087029584   0.225731683048060   0.273791394285716   1.0
F200   F   0.726572155959737   0.292078377911160   0.269577137142861   1.0
H201   H   0.001913873628929   0.329240472190264   0.005737197142857   1.0
H202   H   0.005017780478120   0.468600307227426   0.983260020000003   1.0
H203   H   0.063849374347569   0.661736698254124   0.052582880000003   1.0
H204   H   0.017226640609138   0.650623239820547   0.015894317142859   1.0
H205   H   0.202318450398032   0.570044130471615   0.986711448571427   1.0
H206   H   0.168038013354625   0.470399706268132   0.018939971428573   1.0
H207   H   0.233331383473100   0.768809976772644   0.075288608571427   1.0
H208   H   0.173755044305494   0.811190173177991   0.043617140000002   1.0
H209   H   0.336254320964457   0.794935755792970   0.992419980000001   1.0
H210   H   0.318913956206686   0.668394643506289   0.011911445714283   1.0
H211   H   0.392623503103792   0.904648148334594   0.093025751428570   1.0
H212   H   0.323249068920930   0.958870391883131   0.076514325714285   1.0
H213   H   0.463125888667669   0.047744564664392   0.998760005714288   1.0
H214   H   0.463836146925111   0.907698469839467   0.006425694285717   1.0
H215   H   0.485490108203209   0.032980827954567   0.110359954285713   1.0
H216   H   0.558472159779960   0.040632603166571   0.097745731428574   1.0
H217   H   0.571180330785779   0.799211499585603   0.054317148571428   1.0
H218   H   0.578533255438799   0.711040578141095   0.092628588571429   1.0
H219   H   0.640537609699976   0.874349594479931   0.149034337142858   1.0
H220   H   0.707389315347392   0.846972901564051   0.132322911428574   1.0
H221   H   0.667813845437458   0.584713569654106   0.099505725714287   1.0
H222   H   0.677779777958214   0.518906525701645   0.143665748571429   1.0
H223   H   0.777392222143000   0.713071072530482   0.168154257142859   1.0
H224   H   0.835341458338348   0.654993118336968   0.141405708571426   1.0
H225   H   0.805581122478401   0.371637831516750   0.155751474285715   1.0
H226   H   0.833705482841943   0.390917233033783   0.201722825714285   1.0
H227   H   0.913876805988082   0.604086934522769   0.175500051428571   1.0
H228   H   0.973126015491815   0.544346704717000   0.153385708571427   1.0
H229   H   0.970353633671444   0.312977237707955   0.200288608571427   1.0
H230   H   0.005245921874071   0.349393751728449   0.239908600000000   1.0
H231   H   0.091353760090925   0.532213581971476   0.184534237142856   1.0
H232   H   0.139948135726840   0.417317087538827   0.180631474285711   1.0
H233   H   0.116064209075347   0.274889776644244   0.253162822857142   1.0
H234   H   0.159466853683348   0.363412070983202   0.282420022857146   1.0
H235   H   0.289214057690970   0.248661200037787   0.226457108571431   1.0
H236   H   0.267129587421081   0.301101198898159   0.272842842857145   1.0
H237   H   0.307725401912641   0.558664925239967   0.191668594285716   1.0
H238   H   0.237502847408678   0.499070310352828   0.180759974285714   1.0
H239   H   0.379674168195699   0.291161511185351   0.139668600000000   1.0
H240   H   0.384048038471747   0.330688498336514   0.182554300000000   1.0
H241   H   0.461576051131296   0.580780381658641   0.116934314285714   1.0
H242   H   0.387832103292681   0.581843026106618   0.111919948571426   1.0
H243   H   0.476561649702980   0.318666836039476   0.050180054285711   1.0
H244   H   0.476299060010952   0.293637855937284   0.097505734285711   1.0
H245   H   0.604582598881912   0.524913188222534   0.052100045714283   1.0
H246   H   0.532099952889091   0.585793205651079   0.045402854285712   1.0
H247   H   0.588443266519164   0.335144174321471   0.968191422857146   1.0
H248   H   0.576802609550121   0.288256813167720   0.015042877142854   1.0
H249   H   0.662501536763372   0.400428387540131   0.064651380000001   1.0
H250   H   0.731428177536962   0.381783114401834   0.044334302857145   1.0
H251   H   0.708400916553700   0.118135582364346   0.005768585714286   1.0
H252   H   0.720429136225896   0.064007807715306   0.050500054285713   1.0
H253   H   0.815831324473614   0.253656698305534   0.083879959999997   1.0
H254   H   0.869983430292102   0.181654722384607   0.062140002857142   1.0
H255   H   0.832017946830412   0.899532689559557   0.071871402857141   1.0
H256   H   0.851876726552945   0.911057346906297   0.118137142857144   1.0
H257   H   0.954593159381176   0.118855336839467   0.095714242857142   1.0
H258   H   0.001268155343340   0.030341705362858   0.077945708571427   1.0
H259   H   0.983432048523241   0.826553875227788   0.142468588571425   1.0
H260   H   0.021807101647539   0.891058353717696   0.180037145714287   1.0
H261   H   0.117372930064008   0.038250564510584   0.117462811428574   1.0
H262   H   0.156074535987436   0.927380733014395   0.106105697142858   1.0
H263   H   0.142772207211159   0.815474734067905   0.195720022857145   1.0
H264   H   0.192287900416133   0.898675974459550   0.218994251428569   1.0
H265   H   0.268537292372713   0.941835751358717   0.136302839999999   1.0
H266   H   0.312516801723760   0.812021396670197   0.146371459999998   1.0
H267   H   0.316903561052357   0.799271317035696   0.229988534285717   1.0
H268   H   0.343757919244396   0.919823255329725   0.250074331428571   1.0
H269   H   0.450374521685497   0.967019172045433   0.199677171428569   1.0
H270   H   0.494379899545805   0.844762303610189   0.205062865714282   1.0
H271   H   0.461825751770782   0.959924210665214   0.318200028571425   1.0
H272   H   0.405155222377616   0.913182310195168   0.289691380000001   1.0
H273   H   0.419180784563089   0.273364453088263   0.279965754285712   1.0
H274   H   0.484271834440300   0.222646872897343   0.267574311428568   1.0
H275   H   0.458571214344282   0.273124532073687   0.388151442857143   1.0
H276   H   0.421664794281376   0.159847667292958   0.369648525714283   1.0
H277   H   0.353293424567617   0.488350887911260   0.337877111428568   1.0
H278   H   0.423933508606652   0.458943366430297   0.319357191428573   1.0
H279   H   0.422491320919264   0.605783698780883   0.429079982857139   1.0
H280   H   0.389640178205745   0.470133968038667   0.426802937142860   1.0
H281   H   0.353375205907348   0.787703833787859   0.397471400000001   1.0
H282   H   0.280251107845061   0.755802976005974   0.403165762857142   1.0
H283   H   0.264111857276568   0.568107445198933   0.331514305714286   1.0
H284   H   0.250744906734184   0.685137402979265   0.301554325714285   1.0
H285   H   0.201405790105078   0.853502060643038   0.376234328571428   1.0
H286   H   0.133111849415712   0.792784975289209   0.377900042857142   1.0
H287   H   0.120205581335142   0.740807655536834   0.282674302857146   1.0
H288   H   0.108780219759119   0.874726467550786   0.268302808571427   1.0
H289   H   0.038975280889432   0.945426049381311   0.348474340000003   1.0
H290   H   0.971791391554206   0.891469552630852   0.335991451428569   1.0
H291   H   0.982484982983827   0.921142812341280   0.240811377142855   1.0
H292   H   0.961984755496786   0.071085443370819   0.245160022857142   1.0
H293   H   0.866814944726414   0.029664768220236   0.317985751428573   1.0
H294   H   0.815060633176898   0.968492681230870   0.288014331428570   1.0
H295   H   0.848002257555869   0.125941643925941   0.206765748571428   1.0
H296   H   0.809563323118724   0.248198512361178   0.226380051428571   1.0
H297   H   0.715538627607955   0.064950328852454   0.278077154285711   1.0
H298   H   0.675115041681877   0.045319545872360   0.238168554285714   1.0
H299   H   0.708831503034780   0.304160174696776   0.196585737142854   1.0
H300   H   0.652832603486068   0.362015370796854   0.219585745714284   1.0
H301   H   0.066277346391530   0.375330927125489   0.988868605714288   1.0
H302   H   0.583415059426066   0.223906458223858   0.200974274285713   1.0


# Number_of_total_atoms: 302
# Number_of_atom_type: 3
# Name_of_each_atom: C F H
# Number_of_each_atom: 100 100 102
# Created_by: Lihua Chen (lihua.chen@mse.gatech.edu)
# Tool: VASP
# K-points: 1 1 1
# Pseudopotential: PBE-HSE06
# Material_class: MC_Pol
# Geometry_class: GC_PD
# Bandgap_(eV): 7.73
