#======================================================================

# Note: Disordered slab of polyvinylidene fluoride
# Common_name: Disordered slab-2

#----------------------------------------------------------------------

data_1
_audit_creation_method   'vasp2cif'
_cell_length_a    22.1825829
_cell_length_b    11.5307789
_cell_length_c    35.0
_cell_angle_alpha    90.0
_cell_angle_beta    90.0
_cell_angle_gamma    90.0

_symmetry_space_group_name_H-M    'P 1'
loop_
_atom_site_label
_atom_site_type_symbol
_atom_site_fract_x
_atom_site_fract_y
_atom_site_fract_z
_atom_site_occupancy
C1   C   0.049644448753533   0.381434865601314   0.343054308571432   1.0
C2   C   0.118099069518188   0.446443431501407   0.286817168571432   1.0
C3   C   0.203098228926265   0.538813574857464   0.329762814285715   1.0
C4   C   0.243183655587735   0.704474552018340   0.284125737142858   1.0
C5   C   0.342342541183513   0.758234996596805   0.319302805714287   1.0
C6   C   0.364549215772342   0.965402406597178   0.286982837142858   1.0
C7   C   0.485698272765163   0.001521146156051   0.295242854285711   1.0
C8   C   0.497518325514747   0.901746585393290   0.365602874285713   1.0
C9   C   0.610607063255920   0.835940059521910   0.356611417142858   1.0
C10   C   0.626885654510502   0.764236204372978   0.424831394285711   1.0
C11   C   0.729682524932656   0.646273748254771   0.404605757142861   1.0
C12   C   0.772986765215698   0.613127826082938   0.474388560000001   1.0
C13   C   0.856642465201830   0.473137230998333   0.449502891428573   1.0
C14   C   0.928351887281799   0.530366565262995   0.507737188571426   1.0
C15   C   0.009955666614459   0.361089310280676   0.495734297142860   1.0
C16   C   0.107509657948803   0.476059765572295   0.526119994285715   1.0
C17   C   0.174359434040475   0.299809824642459   0.541851479999998   1.0
C18   C   0.267919296269149   0.448516066854772   0.526691437142858   1.0
C19   C   0.308288810677681   0.370837133994478   0.461114282857146   1.0
C20   C   0.417928896819312   0.469607469448576   0.453128599999999   1.0
C21   C   0.417288745937697   0.419923150204539   0.375900051428573   1.0
C22   C   0.529913168948418   0.388025938126347   0.372857119999999   1.0
C23   C   0.550686227797215   0.392795641931876   0.297099957142855   1.0
C24   C   0.667935820043752   0.332617643028435   0.296200017142858   1.0
C25   C   0.690534667178007   0.197301476312241   0.354060037142858   1.0
C26   C   0.797501507365041   0.156671081430588   0.329742868571429   1.0
C27   C   0.839570503757706   0.089685146941811   0.395525685714283   1.0
C28   C   0.935690969512841   0.979711682790139   0.366699982857142   1.0
C29   C   0.001643667924711   0.000697385672709   0.431542860000000   1.0
C30   C   0.093737591757183   0.882537093829804   0.404620034285713   1.0
C31   C   0.173097191490719   0.975956793343769   0.448142897142858   1.0
C32   C   0.263032561460641   0.843112064181547   0.450374277142856   1.0
C33   C   0.346724375365682   0.978445601797119   0.485214234285713   1.0
C34   C   0.434058650582117   0.844612700014565   0.511694337142856   1.0
C35   C   0.498018754164107   0.975184972109730   0.561188617142854   1.0
C36   C   0.419826737128972   0.140843963281611   0.572379957142857   1.0
C37   C   0.491256714744431   0.295560345884354   0.607854242857144   1.0
C38   C   0.398810257573750   0.398276624660632   0.637265668571430   1.0
C39   C   0.461070888187685   0.594655422627177   0.649339948571431   1.0
C40   C   0.382838285256675   0.694180529296247   0.697657122857144   1.0
C41   C   0.328611060887773   0.798691873278393   0.636322894285712   1.0
C42   C   0.215770301482792   0.764869405309646   0.651768602857146   1.0
C43   C   0.172231670100061   0.907704456981655   0.598942897142855   1.0
C44   C   0.061135446044020   0.820841426419165   0.597602845714285   1.0
C45   C   0.012791206564138   0.008190296667642   0.568600028571431   1.0
C46   C   0.911532371642799   0.902362259326644   0.552757154285715   1.0
C47   C   0.854438010462701   0.092772596654335   0.533202908571425   1.0
C48   C   0.760472388452115   0.996276209927153   0.504777091428572   1.0
C49   C   0.680783728751443   0.169315639206296   0.517114257142858   1.0
C50   C   0.598011600353360   0.110126151148386   0.471077182857144   1.0
C51   C   0.066635287994345   0.476493474348033   0.312854331428575   1.0
C52   C   0.184101338352264   0.447562124359180   0.302188545714287   1.0
C53   C   0.200934355574979   0.666567364326099   0.316851479999997   1.0
C54   C   0.311552682172099   0.686869574786485   0.288277108571428   1.0
C55   C   0.338452110552012   0.892076830993609   0.319262805714288   1.0
C56   C   0.433517721689661   0.943417603818595   0.275148557142856   1.0
C57   C   0.493907425000536   0.007470414682913   0.340154268571432   1.0
C58   C   0.543599595879343   0.808049662629472   0.355157145714287   1.0
C59   C   0.639625307114258   0.856458968266232   0.395785742857143   1.0
C60   C   0.660294762157747   0.645952850591904   0.413597108571430   1.0
C61   C   0.769154885024683   0.687016798145351   0.437745665714289   1.0
C62   C   0.795599109425623   0.484593456214824   0.469882857142856   1.0
C63   C   0.907610294561323   0.540374588224914   0.465765708571432   1.0
C64   C   0.958654904880348   0.412967835156394   0.519357191428568   1.0
C65   C   0.063357919424256   0.440537499162353   0.493051474285714   1.0
C66   C   0.125943052375561   0.388737052273200   0.555168588571426   1.0
C67   C   0.241745658031555   0.336069335264071   0.544385745714287   1.0
C68   C   0.269127460355392   0.459209230002664   0.482588525714284   1.0
C69   C   0.379493332131311   0.364506260717562   0.465219988571427   1.0
C70   C   0.413073722807994   0.513403392029311   0.408679962857143   1.0
C71   C   0.468684947414303   0.335600884689583   0.374848611428568   1.0
C72   C   0.546583842587602   0.462105790615759   0.336145674285717   1.0
C73   C   0.603267976516840   0.303842449012706   0.287742831428574   1.0
C74   C   0.689019969807035   0.322661724092207   0.337591445714288   1.0
C75   C   0.733324981736011   0.112615124378109   0.332039971428571   1.0
C76   C   0.834372763687497   0.187727162126059   0.366022819999998   1.0
C77   C   0.871518997005531   0.974387012138443   0.383325739999996   1.0
C78   C   0.981938875116299   0.044944058375798   0.391397094285715   1.0
C79   C   0.037211279846048   0.885702448080067   0.431408582857145   1.0
C80   C   0.148848432794544   0.964630585363146   0.408805737142856   1.0
C81   C   0.201912596030468   0.871653206358850   0.467322868571429   1.0
C82   C   0.317467182777889   0.930634434417954   0.449351394285714   1.0
C83   C   0.367646190561516   0.891816805194317   0.515517099999997   1.0
C84   C   0.486460176826391   0.925162219527081   0.521111405714286   1.0
C85   C   0.449782725707742   0.032611968650272   0.587394279999998   1.0
C86   C   0.459245099902233   0.257488243053558   0.570845685714289   1.0
C87   C   0.448763899356372   0.308673024681795   0.643265751428572   1.0
C88   C   0.418929668465253   0.522995068442427   0.624679999999998   1.0
C89   C   0.441591628177797   0.627385163026588   0.688877214285718   1.0
C90   C   0.358278485234464   0.801701409780740   0.676879991428571   1.0
C91   C   0.274113326992236   0.728566731949044   0.631457191428574   1.0
C92   C   0.184723434528450   0.884314961585119   0.642934308571427   1.0
C93   C   0.122097715681249   0.843641395292039   0.578128597142857   1.0
C94   C   0.029268115571881   0.941284096601663   0.604505702857146   1.0
C95   C   0.977570713823411   0.937095489707119   0.540317102857145   1.0
C96   C   0.869549019018883   0.999060124203751   0.563077108571427   1.0
C97   C   0.818067178281566   0.063190839605817   0.496242851428569   1.0
C98   C   0.709220466837522   0.051075448164220   0.526648602857144   1.0
C99   C   0.652040461888681   0.188455647172283   0.477780042857141   1.0
C100   C   0.091285239826604   0.350049266836606   0.375039999999998   1.0
F101   F   0.551948474855017   0.136186905812579   0.494465745714287   1.0
F102   F   0.583581409719422   0.125372328490314   0.434479959999997   1.0
F103   F   0.030850438070495   0.281216007012326   0.328557151428569   1.0
F104   F   0.001120712592943   0.426713550114123   0.361042894285717   1.0
F105   F   0.112152972050879   0.342365475414674   0.267357091428572   1.0
F106   F   0.115759400588111   0.529378045745027   0.258897182857140   1.0
F107   F   0.169220248918805   0.528146541774383   0.360137177142860   1.0
F108   F   0.259074541765827   0.508997757298076   0.339351440000002   1.0
F109   F   0.233915176757890   0.640480635701032   0.252128602857141   1.0
F110   F   0.233996344041614   0.817684675230396   0.276217105714288   1.0
F111   F   0.319040516242140   0.723120317570221   0.352251434285712   1.0
F112   F   0.401772067760426   0.732772865846904   0.318954248571430   1.0
F113   F   0.327673401820128   0.950164832316752   0.256977194285717   1.0
F114   F   0.361817329216429   0.080553153265299   0.294539968571428   1.0
F115   F   0.535381414037225   0.956860112893153   0.279925757142856   1.0
F116   F   0.484458552389768   0.117280949685018   0.284085737142860   1.0
F117   F   0.504465239708402   0.931215696105319   0.402162825714285   1.0
F118   F   0.441636681542619   0.857230798172708   0.364762880000001   1.0
F119   F   0.635599707372222   0.744003468837654   0.338717108571430   1.0
F120   F   0.625186095889674   0.928292840651032   0.333228519999999   1.0
F121   F   0.653496599803084   0.795535122089625   0.456605748571427   1.0
F122   F   0.567794222015507   0.749501813793344   0.432477134285712   1.0
F123   F   0.744135242249001   0.535127830783402   0.396977125714287   1.0
F124   F   0.745411072035260   0.703589919671430   0.373014285714284   1.0
F125   F   0.812238231283700   0.665231817080461   0.497577122857145   1.0
F126   F   0.717772266276533   0.613448723745798   0.490294319999997   1.0
F127   F   0.871307132588242   0.362277313287137   0.447565679999997   1.0
F128   F   0.846846473410451   0.497168530393033   0.411999948571427   1.0
F129   F   0.967869300738641   0.614298622966402   0.514105662857141   1.0
F130   F   0.879800295933975   0.548465958357767   0.531474305714283   1.0
F131   F   0.030079549482942   0.263689099094599   0.510531399999998   1.0
F132   F   0.987087089844707   0.335991265949950   0.461382839999999   1.0
F133   F   0.150741801127225   0.534329870812108   0.508182854285714   1.0
F134   F   0.073663324391319   0.549428668691235   0.549571445714285   1.0
F135   F   0.170126351697306   0.200232770051642   0.563299997142856   1.0
F136   F   0.167169099140388   0.276914589004910   0.503831482857144   1.0
F137   F   0.235871657668866   0.536394067880359   0.542114257142856   1.0
F138   F   0.323323123927103   0.459174496876358   0.539611382857146   1.0
F139   F   0.284716280717696   0.267643645478280   0.470571462857144   1.0
F140   F   0.288083760525474   0.387089201753753   0.424619948571426   1.0
F141   F   0.406852603264696   0.562541347488676   0.476648602857146   1.0
F142   F   0.475072787849243   0.441240010247704   0.461974334285713   1.0
F143   F   0.363377079952215   0.359085985075993   0.375442831428572   1.0
F144   F   0.418717804047965   0.472053115162929   0.340668600000001   1.0
F145   F   0.537071947559362   0.463519415847962   0.402482822857145   1.0
F146   F   0.575101747957405   0.306539682241244   0.379514314285714   1.0
F147   F   0.497640078694353   0.337769133705272   0.292605700000003   1.0
F148   F   0.555013893355046   0.476692966508963   0.268379974285715   1.0
F149   F   0.701723603160751   0.269126745635546   0.273099954285712   1.0
F150   F   0.675996229456217   0.442818394514525   0.284479959999999   1.0
F151   F   0.711650292085686   0.213900571799186   0.389845711428570   1.0
F152   F   0.637326264652437   0.144061430230011   0.356677137142860   1.0
F153   F   0.828809854239289   0.076893383152111   0.309717125714286   1.0
F154   F   0.801630805581254   0.247879195741064   0.307377188571429   1.0
F155   F   0.871600168797293   0.124435756894101   0.426314325714287   1.0
F156   F   0.783071231078324   0.055212280585835   0.409674291428573   1.0
F157   F   0.955923018324434   0.869025439382938   0.359862845714282   1.0
F158   F   0.928437526542503   0.018111638581502   0.331334251428572   1.0
F159   F   0.035340438195767   0.086493827403110   0.446440017142855   1.0
F160   F   0.952938685963389   0.978714568883113   0.452022880000001   1.0
F161   F   0.111859935841828   0.769795438537116   0.407028525714288   1.0
F162   F   0.077220137425925   0.891218337383954   0.368051474285714   1.0
F163   F   0.212515464103149   0.059860734993364   0.445400020000001   1.0
F164   F   0.128976955158812   0.008849462892748   0.470779965714286   1.0
F165   F   0.285487128732875   0.748851406733678   0.467828588571429   1.0
F166   F   0.248250698524380   0.816773904146231   0.414462825714288   1.0
F167   F   0.394658428167084   0.046574537995866   0.475634331428573   1.0
F168   F   0.302649291575506   0.040495096129199   0.499251448571428   1.0
F169   F   0.442984567861124   0.751123534247974   0.532382857142856   1.0
F170   F   0.438553208337161   0.816661422586115   0.474760002857145   1.0
F171   F   0.521181056873232   0.881591919172088   0.581114305714287   1.0
F172   F   0.544789700752119   0.050824016753978   0.558479962857142   1.0
F173   F   0.393693689295304   0.123941332358733   0.537008559999997   1.0
F174   F   0.375278309001608   0.165534437573861   0.599534280000000   1.0
F175   F   0.532216769040005   0.209529678866709   0.616708591428569   1.0
F176   F   0.518981155255823   0.394686320800062   0.600900051428574   1.0
F177   F   0.357056824072551   0.364870503240681   0.613659994285712   1.0
F178   F   0.367519965404931   0.399551464819083   0.669551414285714   1.0
F179   F   0.516492689406334   0.550755621547822   0.652822880000002   1.0
F180   F   0.473431869829732   0.691847538590821   0.630388531428572   1.0
F181   F   0.341783562093667   0.610760093578762   0.699488614285713   1.0
F182   F   0.395185855475830   0.731974914548054   0.734537179999997   1.0
F183   F   0.315560312861493   0.913679864245772   0.628300039999999   1.0
F184   F   0.370197768989293   0.761365947273518   0.610985674285715   1.0
F185   F   0.174922975268132   0.687277162169849   0.641194262857141   1.0
F186   F   0.220309917110690   0.756335714667117   0.690754262857141   1.0
F187   F   0.156557205969016   0.021190320456149   0.600605665714284   1.0
F188   F   0.221170962016330   0.915145428727286   0.577897100000001   1.0
F189   F   0.026026820348321   0.746830719302061   0.578962817142859   1.0
F190   F   0.071945747129384   0.773576449375852   0.631039974285713   1.0
F191   F   0.983196650197122   0.099181547917809   0.581802805714283   1.0
F192   F   0.059882228592954   0.049297745185278   0.548871394285712   1.0
F193   F   0.887265603321602   0.851576618124213   0.522682842857144   1.0
F194   F   0.915765368333190   0.822159446661495   0.583008577142856   1.0
F195   F   0.822913322686148   0.173469660406027   0.550168608571425   1.0
F196   F   0.908336170356428   0.131755314465359   0.522754234285713   1.0
F197   F   0.732274599095490   0.969348185142984   0.471114239999999   1.0
F198   F   0.774659239524354   0.894097527097671   0.519842857142855   1.0
F199   F   0.646563191701176   0.205080716620110   0.544825745714284   1.0
F200   F   0.730854570591958   0.242224859588624   0.517334311428570   1.0
H201   H   0.134228823280992   0.310017339765309   0.365939985714284   1.0
H202   H   0.096721928626266   0.424545474547259   0.394534302857146   1.0
H203   H   0.070899881546254   0.563790213686261   0.327325765714285   1.0
H204   H   0.028925513448662   0.489718964258344   0.292842865714284   1.0
H205   H   0.212001533870073   0.434796325857917   0.277679988571428   1.0
H206   H   0.194916070842226   0.369310697649404   0.317805700000001   1.0
H207   H   0.208106631261593   0.721125760203414   0.341788594285717   1.0
H208   H   0.155362543466481   0.690858689520098   0.305757142857146   1.0
H209   H   0.337225977413119   0.707865537166789   0.261122894285712   1.0
H210   H   0.317088507308135   0.594603474705423   0.294528525714284   1.0
H211   H   0.359256730197998   0.928015270503536   0.344345745714286   1.0
H212   H   0.290094328916041   0.915067350740721   0.323245674285715   1.0
H213   H   0.435163116194190   0.967448903213295   0.244948579999999   1.0
H214   H   0.441181396418898   0.851828049534454   0.275122834285717   1.0
H215   H   0.456057928222599   0.060823271878014   0.348871394285716   1.0
H216   H   0.533231033253571   0.064725879012386   0.343048531428572   1.0
H217   H   0.531725369997375   0.773065000838756   0.324294279999997   1.0
H218   H   0.538739859730221   0.727439271253395   0.370302908571432   1.0
H219   H   0.619136336012524   0.933288331458684   0.408319962857142   1.0
H220   H   0.685931938971812   0.871947973956900   0.389808545714288   1.0
H221   H   0.644444457367499   0.608548846600470   0.384808568571429   1.0
H222   H   0.657035448293087   0.573581382260308   0.434228625714283   1.0
H223   H   0.764227658989164   0.781329724395285   0.446640014285712   1.0
H224   H   0.813707870781812   0.690329705307242   0.425354331428572   1.0
H225   H   0.762996882567720   0.429766266700334   0.453045765714286   1.0
H226   H   0.801612836528605   0.444292726833915   0.498262897142858   1.0
H227   H   0.897909052782126   0.633690071015067   0.462231445714288   1.0
H228   H   0.948146620022321   0.519630222031225   0.447794234285716   1.0
H229   H   0.925187156631793   0.341723662744066   0.517968531428572   1.0
H230   H   0.975325668680362   0.420937808459755   0.548331451428574   1.0
H231   H   0.049865342777551   0.531589466172143   0.481971417142859   1.0
H232   H   0.097023989934016   0.403289321591274   0.474517168571431   1.0
H233   H   0.085965751084828   0.338697102239990   0.568477194285713   1.0
H234   H   0.145341145101725   0.433469537777711   0.579985700000002   1.0
H235   H   0.265845615300279   0.258832558137073   0.534491402857142   1.0
H236   H   0.249526528310639   0.337968617193759   0.575222888571432   1.0
H237   H   0.286853069756816   0.549957661576528   0.476471382857142   1.0
H238   H   0.224718754460284   0.456806929148556   0.468699974285712   1.0
H239   H   0.398620919838869   0.289905844955541   0.448280008571430   1.0
H240   H   0.394194027783840   0.343900514821250   0.496362851428572   1.0
H241   H   0.445170972402856   0.576538649960582   0.403822871428574   1.0
H242   H   0.370170684677120   0.558135877533822   0.402982874285712   1.0
H243   H   0.460958160106777   0.280496289803978   0.349237168571428   1.0
H244   H   0.462824444127286   0.270158757445259   0.398682839999999   1.0
H245   H   0.591799510416799   0.494818333564616   0.341231428571426   1.0
H246   H   0.515261998637676   0.538319323770921   0.332662854285715   1.0
H247   H   0.593783075639941   0.291215426912750   0.257725742857140   1.0
H248   H   0.592245851586561   0.216623778988598   0.298120008571431   1.0
H249   H   0.653217069685788   0.371184014290655   0.353728594285713   1.0
H250   H   0.732121375279519   0.368035857490945   0.340991428571428   1.0
H251   H   0.715712091399418   0.115121477179656   0.303865705714287   1.0
H252   H   0.729204622965703   0.030703927555145   0.344351414285711   1.0
H253   H   0.812436594117273   0.262674449511820   0.381460025714283   1.0
H254   H   0.878682333246232   0.218028636382925   0.357174248571425   1.0
H255   H   0.847473127216396   0.922621133599222   0.359999957142854   1.0
H256   H   0.874399635400437   0.916576589635241   0.407985688571429   1.0
H257   H   0.959443893253749   0.136238845061889   0.394454302857142   1.0
H258   H   0.021487245292789   0.058160945224614   0.374400002857143   1.0
H259   H   0.006768494934825   0.814666535666554   0.422605679999997   1.0
H260   H   0.049996080483488   0.864160304036353   0.462808554285715   1.0
H261   H   0.137524201476104   0.054119553016491   0.402394322857141   1.0
H262   H   0.182000577579267   0.942767205431366   0.386914279999999   1.0
H263   H   0.176342999263625   0.792109733367624   0.469842857142858   1.0
H264   H   0.204757120506464   0.900254882174522   0.497485679999997   1.0
H265   H   0.304474989700139   0.008634264941115   0.433805737142855   1.0
H266   H   0.352977051198124   0.884722540296039   0.431745691428574   1.0
H267   H   0.342861029046354   0.812828125600433   0.513568554285712   1.0
H268   H   0.361704605643560   0.926775328247771   0.543560028571427   1.0
H269   H   0.485513492660047   0.998799760179253   0.502391379999999   1.0
H270   H   0.527343535815213   0.881141004273353   0.512345668571427   1.0
H271   H   0.470537734359148   0.049263012058965   0.616222817142855   1.0
H272   H   0.414570446618278   0.968767253008380   0.593608528571430   1.0
H273   H   0.424916392400817   0.312072604219303   0.562651388571432   1.0
H274   H   0.489890769212451   0.248954543738584   0.545628574285715   1.0
H275   H   0.475582246105347   0.339425569941333   0.665954262857142   1.0
H276   H   0.424961450273670   0.230889883770125   0.650491442857145   1.0
H277   H   0.374020533920785   0.571838256303742   0.623640005714286   1.0
H278   H   0.433616862534073   0.517557421901479   0.594139971428568   1.0
H279   H   0.482939387549862   0.672568572102271   0.699220060000002   1.0
H280   H   0.439693702215351   0.547754852883358   0.707714191428572   1.0
H281   H   0.390082703128314   0.879822654478268   0.679417094285718   1.0
H282   H   0.319049545848877   0.829262314621261   0.695662797142859   1.0
H283   H   0.280983627023886   0.632042220495613   0.636942837142854   1.0
H284   H   0.263086730084979   0.715991649098399   0.601842825714286   1.0
H285   H   0.204216196122047   0.961421556699868   0.657137188571426   1.0
H286   H   0.139706088960452   0.873725841712222   0.657228525714288   1.0
H287   H   0.144921928816501   0.761955482469617   0.566034262857144   1.0
H288   H   0.114578280241659   0.894522311931588   0.550394331428571   1.0
H289   H   0.057389290766494   0.996198131940595   0.622417122857144   1.0
H290   H   0.990833407411721   0.924433734480850   0.624645668571425   1.0
H291   H   0.003798430524519   0.859754669305126   0.532802908571426   1.0
H292   H   0.974428509855812   0.986066873591689   0.514477102857143   1.0
H293   H   0.878447937638498   0.043747287531460   0.591477094285715   1.0
H294   H   0.824274710588369   0.964847274974630   0.572168622857141   1.0
H295   H   0.846999782879209   0.013673091936575   0.476388551428570   1.0
H296   H   0.807847457655619   0.148640409712478   0.484311457142859   1.0
H297   H   0.718236585515022   0.053642499380509   0.557668522857142   1.0
H298   H   0.670978797514152   0.987725313161626   0.528997148571428   1.0
H299   H   0.687252826630932   0.160877215328448   0.457719965714283   1.0
H300   H   0.643312907443253   0.280591730017477   0.472591399999999   1.0
H301   H   0.071657227977724   0.279958529080808   0.394497137142857   1.0
H302   H   0.607532615149161   0.017417730557646   0.474028560000001   1.0


# Number_of_total_atoms: 302
# Number_of_atom_type: 3
# Name_of_each_atom: C F H
# Number_of_each_atom: 100 100 102
# Created_by: Lihua Chen (lihua.chen@mse.gatech.edu)
# Tool: VASP
# K-points: 1 1 1
# Pseudopotential: PBE-HSE06
# Material_class: MC_Pol
# Geometry_class: GC_PD
# Bandgap_(eV): 7.65
