#======================================================================

# Note: Disordered slab of polyvinylidene fluoride
# Common_name: Disordered slab-3

#----------------------------------------------------------------------

data_1
_audit_creation_method   'vasp2cif'
_cell_length_a    23.5265084
_cell_length_b    10.8753816
_cell_length_c    35.0
_cell_angle_alpha    90.0
_cell_angle_beta    90.0
_cell_angle_gamma    90.0

_symmetry_space_group_name_H-M    'P 1'
loop_
_atom_site_label
_atom_site_type_symbol
_atom_site_fract_x
_atom_site_fract_y
_atom_site_fract_z
_atom_site_occupancy
C1   C   0.037872411190435   0.497613922807083   0.075868551428570   1.0
C2   C   0.115729238427917   0.469973504194094   0.018434251428573   1.0
C3   C   0.193773143999557   0.609610029683921   0.059157125714286   1.0
C4   C   0.247873836646328   0.719555394727479   0.002308545714286   1.0
C5   C   0.346804768530802   0.743959126914682   0.042099980000003   1.0
C6   C   0.395303286908479   0.916955447338047   0.003588540000003   1.0
C7   C   0.507211057293993   0.944586569725516   0.013071442857140   1.0
C8   C   0.511465815301349   0.868285835597710   0.084348622857142   1.0
C9   C   0.619420661673708   0.825253009972542   0.083428519999998   1.0
C10   C   0.650645018790804   0.743334063790464   0.151822879999997   1.0
C11   C   0.744721826210302   0.627429919332670   0.130017091428570   1.0
C12   C   0.795987423276124   0.606658344751786   0.195582908571431   1.0
C13   C   0.865139274130456   0.417589117056821   0.177468545714284   1.0
C14   C   0.945593171828250   0.452512103115538   0.225894274285714   1.0
C15   C   0.027849640450683   0.312792794323649   0.207468522857141   1.0
C16   C   0.115146937826097   0.460309420314964   0.228417097142859   1.0
C17   C   0.181557085623467   0.261318646510759   0.234485734285713   1.0
C18   C   0.264523094298177   0.427400175089026   0.212848554285714   1.0
C19   C   0.268888429700006   0.322751001215444   0.146225739999998   1.0
C20   C   0.380324366364540   0.363816217722423   0.136777171428569   1.0
C21   C   0.401381519919887   0.347743319645907   0.063534328571429   1.0
C22   C   0.514968298483254   0.361830190859692   0.076048605714284   1.0
C23   C   0.541997328426348   0.433036786497681   0.008137185714283   1.0
C24   C   0.651796893924129   0.414738633171275   0.012700000000002   1.0
C25   C   0.683297543633799   0.227011951470281   0.057062857142860   1.0
C26   C   0.797530389167314   0.239765398209109   0.051477159999998   1.0
C27   C   0.826531743231392   0.055017931508722   0.096222905714285   1.0
C28   C   0.931141384328839   0.062888910491196   0.070891462857141   1.0
C29   C   0.981820341007335   0.949478333707390   0.127500045714285   1.0
C30   C   0.089877544259821   0.978194714565234   0.113797108571426   1.0
C31   C   0.129964240677552   0.911567020324142   0.179100037142859   1.0
C32   C   0.236371866383706   0.876414451516808   0.153731428571426   1.0
C33   C   0.295811256038320   0.909231617215163   0.217514257142859   1.0
C34   C   0.402716133601871   0.860617065611748   0.191419982857141   1.0
C35   C   0.470337744635323   0.978295740905310   0.237848554285712   1.0
C36   C   0.404739374755671   0.158867188623525   0.266571480000003   1.0
C37   C   0.478141686337104   0.313105325885758   0.300865719999997   1.0
C38   C   0.409878305613766   0.431510430861572   0.345979962857143   1.0
C39   C   0.460961083370961   0.649902693989148   0.363825662857146   1.0
C40   C   0.381965102819933   0.717835942418795   0.417228482857141   1.0
C41   C   0.336497233903181   0.852442851292686   0.359140014285714   1.0
C42   C   0.234671699094967   0.784803891387128   0.369120028571430   1.0
C43   C   0.182955580437934   0.966489359784859   0.333151462857145   1.0
C44   C   0.085605762901899   0.854428887350494   0.322557177142855   1.0
C45   C   0.022200723163834   0.037528816460103   0.298994337142858   1.0
C46   C   0.938209917286322   0.883908533379646   0.273697117142859   1.0
C47   C   0.854096411518505   0.039432243922363   0.288477108571428   1.0
C48   C   0.775635916292622   0.983224331181169   0.239234271428572   1.0
C49   C   0.699836296150089   0.143916025898349   0.260314288571429   1.0
C50   C   0.655197309261581   0.130344069949693   0.197868565714288   1.0
C51   C   0.063371273571562   0.538669852283618   0.037602888571428   1.0
C52   C   0.173731904050840   0.480566245142150   0.039648545714286   1.0
C53   C   0.204667238254530   0.726608213913153   0.036442894285713   1.0
C54   C   0.309553171944543   0.677350006734478   0.012222834285716   1.0
C55   C   0.363641057761043   0.880156756982210   0.040625762857140   1.0
C56   C   0.457020885428115   0.875596117013494   0.995205688571431   1.0
C57   C   0.506135632094050   0.980511865441116   0.055554308571430   1.0
C58   C   0.559275701956693   0.771057081803917   0.079140037142857   1.0
C59   C   0.645076810462875   0.849150930023455   0.123557174285715   1.0
C60   C   0.679085273869198   0.621434653842400   0.140565708571430   1.0
C61   C   0.788982609931189   0.675198422462714   0.158317131428575   1.0
C62   C   0.809032282920484   0.464989669879721   0.195468577142854   1.0
C63   C   0.921586201036106   0.481209891522333   0.186348617142855   1.0
C64   C   0.982156140942699   0.337959800877243   0.236542837142856   1.0
C65   C   0.075251489507046   0.405883753081362   0.197391400000001   1.0
C66   C   0.144195026406891   0.362207097174412   0.253645759999998   1.0
C67   C   0.241566007304343   0.310880254537459   0.230974251428570   1.0
C68   C   0.255099732521295   0.436843632227124   0.168154257142859   1.0
C69   C   0.330274449055089   0.276361870373357   0.148059954285714   1.0
C70   C   0.382781178017901   0.423234840789405   0.097668565714287   1.0
C71   C   0.459673165950967   0.288471845438508   0.066791425714285   1.0
C72   C   0.532556939048376   0.468456270076999   0.050205668571429   1.0
C73   C   0.594907878467851   0.363604712500390   0.995991405714285   1.0
C74   C   0.671323811909126   0.374629760118026   0.052205768571426   1.0
C75   C   0.740968664096371   0.181551477697113   0.037348611428570   1.0
C76   C   0.812330706922921   0.189017845589895   0.090137154285714   1.0
C77   C   0.870987991571241   0.001401477259428   0.071574294285718   1.0
C78   C   0.960074636489622   0.068930123794459   0.110054234285712   1.0
C79   C   0.039032795873780   0.893085232062113   0.111248560000000   1.0
C80   C   0.114267058005090   0.016591684470178   0.152537100000004   1.0
C81   C   0.179491360477442   0.824232282571124   0.166808537142856   1.0
C82   C   0.267932023436167   0.963850555827854   0.181254251428569   1.0
C83   C   0.348407246015306   0.823662279583829   0.213031442857144   1.0
C84   C   0.444834580723416   0.962130754106134   0.198419954285711   1.0
C85   C   0.434624820910528   0.033924363628763   0.269160025714285   1.0
C86   C   0.440205759559291   0.278476812252734   0.266665760000002   1.0
C87   C   0.455010374595155   0.333196593303910   0.342465754285712   1.0
C88   C   0.421010429239892   0.569326137484687   0.336508614285712   1.0
C89   C   0.440116498545102   0.660375816146072   0.404508537142860   1.0
C90   C   0.358115414185299   0.838374397823429   0.399431394285713   1.0
C91   C   0.289180429340718   0.775397095031586   0.343442862857145   1.0
C92   C   0.204862783633459   0.906307655448153   0.371208520000003   1.0
C93   C   0.143366144378653   0.892772351086975   0.304517148571428   1.0
C94   C   0.047491314095723   0.961367847542931   0.332057191428568   1.0
C95   C   0.986172950338862   0.970250257701302   0.267188591428571   1.0
C96   C   0.886940112201266   0.918233636969575   0.299742891428572   1.0
C97   C   0.831445294279199   0.055919049314092   0.249691445714284   1.0
C98   C   0.720812630232885   0.008021805873916   0.261165728571427   1.0
C99   C   0.692937690660465   0.212851409278365   0.222688620000000   1.0
C100   C   0.007544914739661   0.379346845171853   0.071271405714285   1.0
F101   F   0.623798731646893   0.209715933094245   0.176060051428571   1.0
F102   F   0.685240037573955   0.062815423414662   0.172942897142860   1.0
F103   F   0.003778941544937   0.584599468215444   0.089317102857144   1.0
F104   F   0.081814299311837   0.479039889506041   0.098882840000002   1.0
F105   F   0.103381477550663   0.350317932751892   0.014222825714285   1.0
F106   F   0.124561824057153   0.523111869472238   0.984228625714287   1.0
F107   F   0.152449527954602   0.639043378487059   0.084780011428570   1.0
F108   F   0.239619296843898   0.577114507871613   0.081851417142857   1.0
F109   F   0.223586271730831   0.648431582391552   0.975508554285717   1.0
F110   F   0.253220966694741   0.835238912444233   0.986602894285717   1.0
F111   F   0.315516611041190   0.733320438153633   0.074537114285711   1.0
F112   F   0.397164948624507   0.682103918082284   0.044857134285714   1.0
F113   F   0.364384895295387   0.882777317901194   0.973228562857145   1.0
F114   F   0.396153328047610   0.040416135834718   0.005357142857143   1.0
F115   F   0.556376878262142   0.881720113618819   0.005665697142860   1.0
F116   F   0.515835367223467   0.052875459560887   0.994797188571425   1.0
F117   F   0.523851881905266   0.916100286540747   0.119522857142854   1.0
F118   F   0.460918603629260   0.803856013659328   0.089431437142856   1.0
F119   F   0.653033813551353   0.738469664365617   0.068888528571428   1.0
F120   F   0.624032463737798   0.929911286974978   0.061625671428573   1.0
F121   F   0.679633566024613   0.801189504927351   0.179728591428571   1.0
F122   F   0.597373208172279   0.714645387707591   0.166265760000002   1.0
F123   F   0.762017231592260   0.512877782605806   0.119328525714287   1.0
F124   F   0.746167021537289   0.691014042210710   0.096985734285717   1.0
F125   F   0.838947482746740   0.657608281074019   0.216468594285715   1.0
F126   F   0.745197880702094   0.617398050657826   0.214077105714289   1.0
F127   F   0.873797473491649   0.295662342551729   0.182079968571429   1.0
F128   F   0.854453455575246   0.426508353509178   0.139882880000002   1.0
F129   F   0.983954163806132   0.541548040944143   0.232388522857143   1.0
F130   F   0.901914811974393   0.466801192520912   0.250131442857146   1.0
F131   F   0.054530174141775   0.209219417183483   0.217379979999997   1.0
F132   F   0.001866205526696   0.281621409955861   0.174777114285717   1.0
F133   F   0.154783074397898   0.524711702989805   0.209651402857141   1.0
F134   F   0.081865331108801   0.536049282169557   0.248942894285712   1.0
F135   F   0.184502767099943   0.168439192975079   0.260220011428572   1.0
F136   F   0.161532911530550   0.216970786569917   0.200094277142860   1.0
F137   F   0.250649433385533   0.538531999649557   0.231965745714284   1.0
F138   F   0.321786177161762   0.422582072890208   0.217379979999997   1.0
F139   F   0.239466231206670   0.223186687996311   0.155114311428569   1.0
F140   F   0.260901672940129   0.350841969536042   0.108448574285717   1.0
F141   F   0.376753942799262   0.457210770424830   0.160559954285716   1.0
F142   F   0.430259562018136   0.314429463330278   0.144222805714286   1.0
F143   F   0.362888706426155   0.261236037915211   0.057805742857141   1.0
F144   F   0.402027586890028   0.426407161657664   0.032897185714283   1.0
F145   F   0.510573209410026   0.408513610225867   0.113191440000001   1.0
F146   F   0.557877283651663   0.280085941995821   0.077471379999999   1.0
F147   F   0.495343609934061   0.374556107530054   0.993917194285714   1.0
F148   F   0.546621937320715   0.542881309102754   0.989871434285718   1.0
F149   F   0.696185125371173   0.386123609676375   0.991094317142860   1.0
F150   F   0.651414312716291   0.541373187309581   0.015414319999998   1.0
F151   F   0.679914151646912   0.203196621624755   0.094520022857139   1.0
F152   F   0.641608373982088   0.160227977655516   0.040480042857141   1.0
F153   F   0.841361814658399   0.219655887752943   0.027968600000001   1.0
F154   F   0.795966179154746   0.362381766907376   0.054965754285718   1.0
F155   F   0.838811444710601   0.045546944302167   0.133082908571431   1.0
F156   F   0.776579519976707   0.985992215666251   0.093131474285713   1.0
F157   F   0.965927731970631   0.014458334041358   0.043868582857144   1.0
F158   F   0.921522477173028   0.180374489112182   0.060491399999996   1.0
F159   F   0.990151330743153   0.963786015563812   0.165425765714289   1.0
F160   F   0.938737050330850   0.867789503588547   0.124194337142860   1.0
F161   F   0.132480563924226   0.916725699078000   0.094899968571426   1.0
F162   F   0.078069604242678   0.076396500882325   0.090942820000002   1.0
F163   F   0.143170637254443   0.972723495054190   0.211691394285715   1.0
F164   F   0.084139370209307   0.844461558939685   0.185068622857145   1.0
F165   F   0.269453749456510   0.772822481925601   0.148248617142855   1.0
F166   F   0.226315167957523   0.929258519075780   0.118840025714284   1.0
F167   F   0.312630517667465   0.992529760978684   0.241819982857145   1.0
F168   F   0.255282471069954   0.852176276738646   0.237982831428575   1.0
F169   F   0.435738509331884   0.754000107913456   0.192337145714284   1.0
F170   F   0.380230888830063   0.870879031959667   0.155534254285712   1.0
F171   F   0.488478974636116   0.868828464832902   0.251568602857141   1.0
F172   F   0.516183897479664   0.045740040974749   0.233140020000000   1.0
F173   F   0.373030530106199   0.162683155871974   0.234714291428574   1.0
F174   F   0.364282908210896   0.176153910774033   0.294448525714287   1.0
F175   F   0.517051046979837   0.219481034118381   0.302522822857142   1.0
F176   F   0.507138823880894   0.416927043737019   0.288814325714284   1.0
F177   F   0.367390084114646   0.404403354453329   0.319808522857144   1.0
F178   F   0.385029718222022   0.421202691407167   0.380271477142855   1.0
F179   F   0.514530430703438   0.607770967779189   0.364468602857144   1.0
F180   F   0.468845853046346   0.767268828525523   0.350328608571431   1.0
F181   F   0.339591607227192   0.631714863228339   0.417599922857143   1.0
F182   F   0.393360792968323   0.744676435077920   0.453874205714285   1.0
F183   F   0.324714750277181   0.973588126783525   0.355014257142855   1.0
F184   F   0.378611473005492   0.828204676514524   0.334797122857140   1.0
F185   F   0.201028793545923   0.695317219949324   0.353111377142859   1.0
F186   F   0.245803818470570   0.741945386081902   0.405402920000000   1.0
F187   F   0.159836960762099   0.075467853008483   0.339957102857141   1.0
F188   F   0.232741931225121   0.990617395899008   0.314245714285711   1.0
F189   F   0.058262138890107   0.783636199027718   0.297842842857143   1.0
F190   F   0.098531612111216   0.782330304621219   0.352925762857140   1.0
F191   F   0.987936922250647   0.130858994409905   0.312814331428569   1.0
F192   F   0.067081994198510   0.102372536518629   0.282457188571428   1.0
F193   F   0.919316340201163   0.849251947168455   0.237431445714286   1.0
F194   F   0.958098257368270   0.778440675589721   0.289094325714288   1.0
F195   F   0.812806765665236   0.043900979070010   0.315062822857143   1.0
F196   F   0.887607495551698   0.135796706204772   0.295262908571431   1.0
F197   F   0.766646048505862   0.989376032561466   0.201051440000000   1.0
F198   F   0.790432021778464   0.865987277172877   0.242754257142856   1.0
F199   F   0.650530220625512   0.148366352496538   0.280117145714286   1.0
F200   F   0.737019875843544   0.214837620042687   0.278479985714284   1.0
H201   H   0.973230077778986   0.397920878472895   0.049680002857144   1.0
H202   H   0.032797280704855   0.299533553838700   0.059108625714288   1.0
H203   H   0.075234508661730   0.638013529566635   0.043782805714287   1.0
H204   H   0.028886798178689   0.541612406501670   0.014114271428575   1.0
H205   H   0.206023168316811   0.470074705240691   0.018462808571428   1.0
H206   H   0.177888887243462   0.403437871090425   0.058868517142855   1.0
H207   H   0.213869594010816   0.800076881899940   0.056239971428575   1.0
H208   H   0.167198852167964   0.766965418482421   0.023748562857143   1.0
H209   H   0.332301987489146   0.668633163180225   0.985437120000000   1.0
H210   H   0.306892296861186   0.584902878258546   0.022728620000002   1.0
H211   H   0.388430137809998   0.895797688607082   0.068308585714284   1.0
H212   H   0.327371328080282   0.941920060993539   0.042579977142857   1.0
H213   H   0.464892852523754   0.884772815695953   0.964631434285714   1.0
H214   H   0.458249295505318   0.773457015981855   0.000742885714288   1.0
H215   H   0.465781161134814   0.024104009371037   0.063948605714287   1.0
H216   H   0.541993111906059   0.050549196361075   0.059639957142856   1.0
H217   H   0.552649172539347   0.716640536089329   0.053797148571427   1.0
H218   H   0.557311968145683   0.700760734685396   0.103117154285712   1.0
H219   H   0.623190851388728   0.924642451166953   0.137728554285715   1.0
H220   H   0.687088973219673   0.897231964715608   0.120640020000003   1.0
H221   H   0.657424609594855   0.576176563772258   0.114685711428571   1.0
H222   H   0.677797356449204   0.553519988668718   0.164554268571429   1.0
H223   H   0.775227878693634   0.770220513457659   0.164831434285716   1.0
H224   H   0.832082928208763   0.683179714815708   0.145739962857142   1.0
H225   H   0.772226987154625   0.422701507779735   0.184017182857140   1.0
H226   H   0.814392215548651   0.429294481032279   0.226565662857141   1.0
H227   H   0.911746292110223   0.586291206554080   0.185865674285715   1.0
H228   H   0.953979456637093   0.462387517510187   0.163840048571430   1.0
H229   H   0.954472538729974   0.262698018798716   0.238002885714287   1.0
H230   H   0.997165104193705   0.340405682868173   0.265157100000003   1.0
H231   H   0.055388814091934   0.478690356943431   0.181968580000003   1.0
H232   H   0.103615252146810   0.366721954841566   0.176577105714287   1.0
H233   H   0.109991021872162   0.314457177300334   0.266894314285714   1.0
H234   H   0.167747186828627   0.406352729728582   0.277145714285716   1.0
H235   H   0.270371811738968   0.241714764289284   0.219114248571429   1.0
H236   H   0.260735881232591   0.312893995370238   0.259482902857144   1.0
H237   H   0.281308466495609   0.519148753364206   0.158980017142859   1.0
H238   H   0.209644589674852   0.460732439954107   0.162942831428573   1.0
H239   H   0.333245591173231   0.193174049175433   0.130905697142857   1.0
H240   H   0.342065442231110   0.245926221108419   0.176959991428575   1.0
H241   H   0.415965052425712   0.493871442635168   0.098122842857144   1.0
H242   H   0.341347061087909   0.471453902822134   0.090011380000000   1.0
H243   H   0.465258406130509   0.244142228535687   0.039837102857142   1.0
H244   H   0.459154627466944   0.201357559720016   0.087328557142854   1.0
H245   H   0.570701141525959   0.524160126942121   0.063922882857142   1.0
H246   H   0.496010916775056   0.537152792873030   0.051948548571431   1.0
H247   H   0.600055242366523   0.365039163315430   0.965219988571427   1.0
H248   H   0.584651337382475   0.272978062673218   0.002222879999998   1.0
H249   H   0.636873264202691   0.402040255764447   0.071651459999998   1.0
H250   H   0.710105567556298   0.421184448369146   0.059597125714284   1.0
H251   H   0.733581273794115   0.196741675712786   0.007477134285715   1.0
H252   H   0.740518065995715   0.079835396304624   0.039488548571427   1.0
H253   H   0.775155645280535   0.203996538383535   0.107925742857141   1.0
H254   H   0.846092631408069   0.245769776023309   0.104622868571425   1.0
H255   H   0.858011068059724   0.003865602288386   0.040200042857144   1.0
H256   H   0.875697483439573   0.900229597460743   0.077108548571431   1.0
H257   H   0.932765101684190   0.114160674601067   0.129254260000003   1.0
H258   H   0.995081990152009   0.135566783238211   0.111645725714283   1.0
H259   H   0.032737773362065   0.864644547277308   0.079199982857141   1.0
H260   H   0.048315941348953   0.802632902554883   0.128482820000002   1.0
H261   H   0.082910960132104   0.065647498750756   0.172008622857142   1.0
H262   H   0.147778222798245   0.095301474294935   0.147788565714286   1.0
H263   H   0.164814316432945   0.781879920425048   0.140442874285718   1.0
H264   H   0.185871427483050   0.760243714114822   0.190402877142859   1.0
H265   H   0.233434775217219   0.031064749029127   0.191411482857141   1.0
H266   H   0.293252372289977   0.018110656457331   0.160454234285716   1.0
H267   H   0.330776040697991   0.743637473833559   0.195688519999997   1.0
H268   H   0.357928378356391   0.798587187046387   0.242405699999999   1.0
H269   H   0.431300936266432   0.038779466828089   0.180505697142856   1.0
H270   H   0.482226431866110   0.930932014376396   0.182548522857139   1.0
H271   H   0.459660439880658   0.023773060064393   0.296485682857146   1.0
H272   H   0.401925595555014   0.965293953455387   0.272382899999997   1.0
H273   H   0.410061044162426   0.360506062610256   0.263902828571432   1.0
H274   H   0.462614554397710   0.279543312760630   0.239245714285715   1.0
H275   H   0.491275806995652   0.356469459425682   0.362797111428570   1.0
H276   H   0.435802233194963   0.237963162598362   0.353305708571426   1.0
H277   H   0.381892869406833   0.614354470099698   0.335105679999998   1.0
H278   H   0.441939973549154   0.577390562552765   0.309742845714283   1.0
H279   H   0.476624253346493   0.706967505397692   0.421082851428572   1.0
H280   H   0.443835771227320   0.572112255812705   0.422951400000002   1.0
H281   H   0.397181976225589   0.899015957288341   0.400388662857147   1.0
H282   H   0.327005855233495   0.878878567350682   0.418751525714285   1.0
H283   H   0.296946103570555   0.677239868070465   0.341365708571431   1.0
H284   H   0.275821005381317   0.812471840068582   0.314211382857145   1.0
H285   H   0.232597379388437   0.977698033143042   0.387111445714282   1.0
H286   H   0.167245590935202   0.899061905101334   0.390400042857145   1.0
H287   H   0.164032211426665   0.806678967476415   0.292585754285717   1.0
H288   H   0.136603576925168   0.957643775920467   0.280085754285715   1.0
H289   H   0.065084251941101   0.024058061558044   0.354468537142857   1.0
H290   H   0.008144242942571   0.924523190983940   0.343505751428573   1.0
H291   H   0.016449738032527   0.910647659480752   0.249320002857139   1.0
H292   H   0.969523616177568   0.041243766563554   0.246562848571429   1.0
H293   H   0.898786391949258   0.922601354972223   0.330528585714284   1.0
H294   H   0.855826332478642   0.832793030453296   0.297560011428573   1.0
H295   H   0.865691863566120   0.028453309629157   0.228411428571427   1.0
H296   H   0.826680511588364   0.159731470939832   0.245214300000001   1.0
H297   H   0.729683479083533   0.975500491863201   0.289734322857143   1.0
H298   H   0.685180530231165   0.953965661306086   0.250242834285714   1.0
H299   H   0.728854673564733   0.234974826078748   0.205037145714286   1.0
H300   H   0.672046409572616   0.306825242803434   0.229194314285714   1.0
H301   H   0.983206028991532   0.347439909602805   0.097914234285717   1.0
H302   H   0.625838915391284   0.078621756132215   0.216505759999997   1.0


# Number_of_total_atoms: 302
# Number_of_atom_type: 3
# Name_of_each_atom: C F H
# Number_of_each_atom: 100 100 102
# Created_by: Lihua Chen (lihua.chen@mse.gatech.edu)
# Tool: VASP
# K-points: 1 1 1
# Pseudopotential: PBE-HSE06
# Material_class: MC_Pol
# Geometry_class: GC_PD
# Bandgap_(eV): 7.75
