#======================================================================

# Note: Disordered slab of polyvinylidene fluoride
# Common_name: Disordered slab-4

#----------------------------------------------------------------------

data_1
_audit_creation_method   'vasp2cif'
_cell_length_a    23.1502781
_cell_length_b    11.4113407
_cell_length_c    35.0
_cell_angle_alpha    90.0
_cell_angle_beta    90.0
_cell_angle_gamma    90.0

_symmetry_space_group_name_H-M    'P 1'
loop_
_atom_site_label
_atom_site_type_symbol
_atom_site_fract_x
_atom_site_fract_y
_atom_site_fract_z
_atom_site_occupancy
C1   C   0.079730748461287   0.283272683287777   0.046459962857142   1.0
C2   C   0.139933031733214   0.378686572735489   0.992348588571431   1.0
C3   C   0.209387946834212   0.498733799088129   0.038362885714285   1.0
C4   C   0.236631645474702   0.648172795331575   0.985102845714287   1.0
C5   C   0.327187844883817   0.709261287764370   0.028551377142854   1.0
C6   C   0.347567721011522   0.929428038197123   0.003062874285718   1.0
C7   C   0.451566493276815   0.002683348153823   0.020897131428569   1.0
C8   C   0.490006562815331   0.862687712058232   0.076885768571429   1.0
C9   C   0.602333550368883   0.937963468218946   0.081951468571425   1.0
C10   C   0.633352594585027   0.808013899716443   0.142019982857143   1.0
C11   C   0.742876095298399   0.781146022570340   0.120957182857140   1.0
C12   C   0.779039816372659   0.679632832275352   0.182934242857144   1.0
C13   C   0.860913528291483   0.570635902580669   0.148525674285715   1.0
C14   C   0.928325254114334   0.558306115599542   0.211119951428572   1.0
C15   C   0.000850469264989   0.406983055023503   0.182799965714288   1.0
C16   C   0.086473656659876   0.480550089964453   0.225137114285715   1.0
C17   C   0.142533462697365   0.271652760310630   0.219757188571428   1.0
C18   C   0.249188768924554   0.382936739413978   0.222931454285714   1.0
C19   C   0.282475600152722   0.297407797139911   0.155045754285716   1.0
C20   C   0.388690328519203   0.361098735751533   0.165922874285712   1.0
C21   C   0.421182339921870   0.360143668307089   0.094911411428569   1.0
C22   C   0.533612972018680   0.362904071385756   0.115125711428568   1.0
C23   C   0.568822039334378   0.461665376444330   0.049600002857140   1.0
C24   C   0.680237543237112   0.435366950353171   0.041105762857143   1.0
C25   C   0.716690699279333   0.273291445938511   0.092762865714285   1.0
C26   C   0.816953002391791   0.204517800436896   0.061471448571432   1.0
C27   C   0.857410468861708   0.094486908098361   0.120497131428571   1.0
C28   C   0.952467629319756   0.004234454239018   0.086005728571429   1.0
C29   C   0.002578310279567   0.966812024112116   0.152185714285714   1.0
C30   C   0.086283585509065   0.830140896590706   0.123651451428572   1.0
C31   C   0.160952256551944   0.879162515934695   0.173482839999998   1.0
C32   C   0.264164861155599   0.779419406871270   0.156980025714283   1.0
C33   C   0.329248252097671   0.926036666313891   0.199677171428569   1.0
C34   C   0.422867049705118   0.805604007599214   0.217397091428573   1.0
C35   C   0.494740847195267   0.935133029548403   0.259102848571430   1.0
C36   C   0.425134832397539   0.098123483422064   0.280728585714286   1.0
C37   C   0.489082228346966   0.262328579848642   0.310751451428573   1.0
C38   C   0.402793826481073   0.380623277683753   0.342017148571429   1.0
C39   C   0.452521060643328   0.583316191760012   0.351908548571430   1.0
C40   C   0.374262869006316   0.700909718697645   0.392445700000003   1.0
C41   C   0.322535619993268   0.757564192260077   0.328922817142860   1.0
C42   C   0.216571437213105   0.739397869349389   0.354199982857146   1.0
C43   C   0.169751248042246   0.874894638804363   0.302051437142857   1.0
C44   C   0.061955584023849   0.835880984606831   0.319522857142857   1.0
C45   C   0.025005699607554   0.021165067834666   0.280514308571426   1.0
C46   C   0.913651616133286   0.947865801605587   0.278205762857141   1.0
C47   C   0.869181346897079   0.151868290112482   0.265605708571428   1.0
C48   C   0.762214981771642   0.098071000544223   0.242665754285717   1.0
C49   C   0.719053560743184   0.304313225877131   0.255497200000001   1.0
C50   C   0.611003018577129   0.274833692416173   0.231477137142861   1.0
C51   C   0.081968293935958   0.384943479954110   0.017625754285717   1.0
C52   C   0.198433391605782   0.390473136955762   0.012482888571426   1.0
C53   C   0.197254144432932   0.614250383392722   0.019148582857142   1.0
C54   C   0.300808006276178   0.647261526421694   0.993054308571431   1.0
C55   C   0.322211662761838   0.842760009785707   0.033014242857142   1.0
C56   C   0.413450298897274   0.932477767489672   0.993965694285713   1.0
C57   C   0.455168989956974   0.964822661021771   0.063051388571431   1.0
C58   C   0.556010167324942   0.851172754836774   0.065391431428573   1.0
C59   C   0.618190794001734   0.930330622763719   0.124408614285713   1.0
C60   C   0.678937347193248   0.739765924261640   0.123642840000002   1.0
C61   C   0.776258009617607   0.791372612334676   0.158754294285714   1.0
C62   C   0.800011503965472   0.564063423327639   0.165379988571431   1.0
C63   C   0.908990821151299   0.625695138521280   0.174097117142857   1.0
C64   C   0.949893115970816   0.431169441816770   0.211814337142854   1.0
C65   C   0.055441632038104   0.488866387102085   0.187471445714287   1.0
C66   C   0.101911916125104   0.357996690082174   0.243491474285712   1.0
C67   C   0.209383584035649   0.275175510271111   0.229945700000002   1.0
C68   C   0.258506155915249   0.396528464004234   0.180571420000000   1.0
C69   C   0.343109856637099   0.255353115519547   0.167808531428570   1.0
C70   C   0.397238852176038   0.428303906481382   0.128077154285712   1.0
C71   C   0.482494830159297   0.294743675473647   0.098819951428574   1.0
C72   C   0.552662419204374   0.475581374938706   0.093845694285712   1.0
C73   C   0.619577416653151   0.400393023056438   0.033054242857141   1.0
C74   C   0.706846342377197   0.404178695672457   0.080157145714288   1.0
C75   C   0.752301498270121   0.182013722541825   0.069379971428574   1.0
C76   C   0.854226844039509   0.208180779318944   0.096579960000000   1.0
C77   C   0.887323599797277   0.992777334218054   0.099042840000003   1.0
C78   C   0.995749999219228   0.049855850855458   0.116545760000001   1.0
C79   C   0.028569393298128   0.842137891825452   0.147574288571427   1.0
C80   C   0.141004306121054   0.904672191585689   0.132802908571428   1.0
C81   C   0.207305872494032   0.778026091184884   0.178745705714284   1.0
C82   C   0.308324106050371   0.880301444334229   0.161057174285716   1.0
C83   C   0.359489785135672   0.848429904472134   0.228580039999997   1.0
C84   C   0.475700052173458   0.892666494481233   0.220368522857143   1.0
C85   C   0.456279110530424   0.982874992068197   0.290388597142858   1.0
C86   C   0.457363361004290   0.210240178001172   0.275705719999998   1.0
C87   C   0.452944381691900   0.296575248165190   0.346742902857144   1.0
C88   C   0.414210510067264   0.505683017596695   0.327934265714283   1.0
C89   C   0.436266443814340   0.639742672830721   0.389605714285715   1.0
C90   C   0.351127047583937   0.799697436077778   0.366245705714284   1.0
C91   C   0.267188569972298   0.681560686379299   0.331134251428573   1.0
C92   C   0.194010122928070   0.864483855082867   0.341088542857143   1.0
C93   C   0.114507885760560   0.803141623840922   0.295337131428575   1.0
C94   C   0.043070299012953   0.966996218069276   0.318242862857140   1.0
C95   C   0.974234050346027   0.965296014691774   0.259877122857141   1.0
C96   C   0.885159548040157   0.056174100559453   0.294765691428573   1.0
C97   C   0.825946436470673   0.125622513400202   0.231897191428573   1.0
C98   C   0.728284521126334   0.179095713091804   0.269725691428569   1.0
C99   C   0.673594037732101   0.315643989141435   0.223334285714287   1.0
C100   C   0.086987689361713   0.161937273505472   0.028897094285718   1.0
F101   F   0.574761523059195   0.336281380153693   0.210248565714288   1.0
F102   F   0.606251429869431   0.161262506166345   0.219111417142855   1.0
F103   F   0.027865289445486   0.288197608542177   0.066022820000001   1.0
F104   F   0.124546642055243   0.298354171477854   0.070571462857146   1.0
F105   F   0.134222547417259   0.274632121009233   0.975014277142854   1.0
F106   F   0.134576741866439   0.459535950933443   0.963402885714288   1.0
F107   F   0.178511432223360   0.488489647846549   0.071539960000003   1.0
F108   F   0.265162685021913   0.495061951835332   0.047594234285711   1.0
F109   F   0.227970902863582   0.583114611589856   0.953877148571429   1.0
F110   F   0.222225775335289   0.758782007095803   0.974139948571427   1.0
F111   F   0.303503472815734   0.668056699069552   0.060428620000003   1.0
F112   F   0.385079097602720   0.684531520472440   0.033802905714289   1.0
F113   F   0.318185762960660   0.897100522114812   0.969414302857146   1.0
F114   F   0.329866011415213   0.041206428969382   0.010148620000003   1.0
F115   F   0.505989126756972   0.006477871614159   0.005728585714287   1.0
F116   F   0.427100242912417   0.109664677700842   0.017031425714286   1.0
F117   F   0.487894333329848   0.859305024518285   0.115288542857144   1.0
F118   F   0.458050164848778   0.770700115894357   0.066625760000001   1.0
F119   F   0.651434455122164   0.924476867122195   0.063308608571425   1.0
F120   F   0.582294927161158   0.048427429741011   0.077345711428570   1.0
F121   F   0.649866409164218   0.823489522138267   0.178231377142858   1.0
F122   F   0.584912619257047   0.738346196253694   0.142739977142860   1.0
F123   F   0.768305651585237   0.701707337508552   0.097957177142860   1.0
F124   F   0.747623403279981   0.877803963911092   0.100797162857141   1.0
F125   F   0.815073940731622   0.704318809795943   0.210431454285711   1.0
F126   F   0.727995090477982   0.663008922343366   0.200331442857141   1.0
F127   F   0.874222292819887   0.459308133705974   0.141017154285713   1.0
F128   F   0.863043135537971   0.624074163345242   0.114411380000000   1.0
F129   F   0.968730898312621   0.624503394241835   0.228125765714289   1.0
F130   F   0.882442496446728   0.557754033231170   0.235851397142859   1.0
F131   F   0.020133205224866   0.298687129725259   0.189437102857141   1.0
F132   F   0.981599046103902   0.416123041528330   0.146357182857145   1.0
F133   F   0.130861866406690   0.553048232097744   0.224320005714283   1.0
F134   F   0.055363857594436   0.532253050686677   0.252162825714286   1.0
F135   F   0.122887888763636   0.167466930507125   0.230337088571432   1.0
F136   F   0.133898551309414   0.284420629032660   0.181325748571432   1.0
F137   F   0.225923350786871   0.477342745537342   0.238265665714287   1.0
F138   F   0.303542280124923   0.372552350487616   0.237974331428575   1.0
F139   F   0.251655274931665   0.198129348639988   0.158011408571426   1.0
F140   F   0.285278996281257   0.328192900243529   0.118077197142860   1.0
F141   F   0.379593245577467   0.434148969016412   0.195025745714283   1.0
F142   F   0.439138966542266   0.302998630125906   0.172982897142859   1.0
F143   F   0.385390117624546   0.272257325556851   0.084062851428570   1.0
F144   F   0.426797870734866   0.434630840528669   0.065251377142857   1.0
F145   F   0.519340983640276   0.400848666274598   0.149939945714287   1.0
F146   F   0.580035796632615   0.293210122102479   0.116134317142858   1.0
F147   F   0.521103385794746   0.416368411469826   0.032220022857146   1.0
F148   F   0.576869471818569   0.570180259362516   0.038539997142855   1.0
F149   F   0.710181075535331   0.385443079444642   0.013299997142859   1.0
F150   F   0.682915709768515   0.552092998152268   0.036451394285713   1.0
F151   F   0.735580308212363   0.279066306380635   0.129785702857141   1.0
F152   F   0.663969989198534   0.224664285065117   0.097605677142859   1.0
F153   F   0.831976549776307   0.125911673113045   0.037045725714286   1.0
F154   F   0.822875186108455   0.308204030749863   0.043800028571425   1.0
F155   F   0.884399254797721   0.116219604239845   0.153460039999999   1.0
F156   F   0.803778201696851   0.057076676362840   0.128482820000002   1.0
F157   F   0.967210311827742   0.900886352468646   0.072402845714286   1.0
F158   F   0.949698673382244   0.077083107333742   0.056620028571430   1.0
F159   F   0.038491520324328   0.016222589866239   0.174568611428569   1.0
F160   F   0.950800223864263   0.953132544714926   0.171131462857140   1.0
F161   F   0.096987556274755   0.715088631084342   0.120757185714282   1.0
F162   F   0.077627084747633   0.860444285919883   0.087560054285717   1.0
F163   F   0.191029588538726   0.972814868282740   0.186657171428571   1.0
F164   F   0.119514309419891   0.854940865975550   0.198971451428569   1.0
F165   F   0.295702227438902   0.681359106209143   0.164891380000000   1.0
F166   F   0.250843159417599   0.768824753431467   0.118625751428574   1.0
F167   F   0.363895831558068   0.017055138840959   0.190422822857144   1.0
F168   F   0.282475600152722   0.969502391598908   0.218462808571431   1.0
F169   F   0.438987780453488   0.719417684199016   0.240577154285717   1.0
F170   F   0.421562486543088   0.770612536351663   0.180054257142856   1.0
F171   F   0.517950080262750   0.839754070264505   0.274925668571427   1.0
F172   F   0.536921830757620   0.015030845586793   0.257054251428571   1.0
F173   F   0.388094232008385   0.084023641499023   0.250905719999999   1.0
F174   F   0.386172000240464   0.115264370294369   0.308582851428568   1.0
F175   F   0.531513675423192   0.185939632842619   0.318937137142861   1.0
F176   F   0.514239567601564   0.361729713319313   0.296685682857145   1.0
F177   F   0.359092420578740   0.332635953985672   0.321231405714286   1.0
F178   F   0.382089993121937   0.385443079444642   0.377305711428569   1.0
F179   F   0.502179254598239   0.521789784087332   0.357662854285714   1.0
F180   F   0.463657043497889   0.670738040447780   0.325668554285713   1.0
F181   F   0.332544095874162   0.624345603843025   0.398288617142860   1.0
F182   F   0.384578084182927   0.761034126340647   0.424468560000001   1.0
F183   F   0.308492592147303   0.854616609597855   0.310794285714287   1.0
F184   F   0.362526513234414   0.711706285309667   0.305045754285715   1.0
F185   F   0.174364587870763   0.665085864976412   0.355197142857143   1.0
F186   F   0.235828259877358   0.756021779281376   0.389791434285712   1.0
F187   F   0.162157412700800   0.990393845659170   0.296702902857142   1.0
F188   F   0.208174099645049   0.838369780686683   0.276625714285714   1.0
F189   F   0.015550102614100   0.771094583128168   0.309340014285716   1.0
F190   F   0.070663907056911   0.810695241094677   0.355860028571428   1.0
F191   F   0.014160184105954   0.137409077620475   0.286308614285716   1.0
F192   F   0.070625017675276   0.018483568718615   0.258131408571430   1.0
F193   F   0.877734077846782   0.901929341221056   0.251614271428572   1.0
F194   F   0.911180743008011   0.862442009114666   0.305465699999999   1.0
F195   F   0.850071429595481   0.244136177618465   0.286914279999998   1.0
F196   F   0.917245460649561   0.188787781965004   0.249008614285714   1.0
F197   F   0.729515590570813   0.079677018143890   0.209511457142860   1.0
F198   F   0.765441698948749   0.983873849283988   0.256791468571428   1.0
F199   F   0.697347532079974   0.373367346748310   0.283231462857145   1.0
F200   F   0.767795903929120   0.346289021061302   0.242000034285717   1.0
H201   H   0.054119812063945   0.132352607787794   0.005802808571431   1.0
H202   H   0.131384546952809   0.140134375271081   0.021125685714289   1.0
H203   H   0.083125956054928   0.470954460241465   0.030597142857140   1.0
H204   H   0.045882347305366   0.399709571374025   0.998642840000002   1.0
H205   H   0.230942789408651   0.385749783108309   0.988508605714287   1.0
H206   H   0.207729193542605   0.304488393725727   0.029517145714287   1.0
H207   H   0.198087849320480   0.681271517903241   0.041611480000000   1.0
H208   H   0.149768779667490   0.609597065137137   0.010845728571425   1.0
H209   H   0.321468669527562   0.673200757208136   0.966419982857140   1.0
H210   H   0.316038929139261   0.552452359958018   0.993017142857141   1.0
H211   H   0.341382058818553   0.856824930308143   0.061251394285712   1.0
H212   H   0.277214345861360   0.861381967151324   0.034568568571430   1.0
H213   H   0.415178096715820   0.976801945804667   0.965614320000000   1.0
H214   H   0.430374501635036   0.840183634163161   0.992711422857141   1.0
H215   H   0.410098265730987   0.939584767633832   0.072522845714289   1.0
H216   H   0.466572736333568   0.044001928712902   0.080491420000001   1.0
H217   H   0.561435536275482   0.861837601606268   0.033999960000003   1.0
H218   H   0.567487321027045   0.765266906806140   0.075068557142856   1.0
H219   H   0.583577818877259   0.976547882756670   0.141762868571426   1.0
H220   H   0.660687082631632   0.982910097496259   0.130039979999999   1.0
H221   H   0.669719324019695   0.699332550819378   0.093768528571431   1.0
H222   H   0.680354207062422   0.652028836541533   0.140960040000003   1.0
H223   H   0.754811178704585   0.851908855898060   0.179631479999998   1.0
H224   H   0.817968134905470   0.833295591638937   0.157122802857145   1.0
H225   H   0.768573419426872   0.536091372681561   0.145431408571426   1.0
H226   H   0.801527723332185   0.507374352603456   0.190320042857145   1.0
H227   H   0.901241398046096   0.717288258688129   0.181297194285712   1.0
H228   H   0.945491354594139   0.624003961252335   0.153971428571431   1.0
H229   H   0.916485331552025   0.372499701108737   0.201865714285717   1.0
H230   H   0.961616534533121   0.409690799960082   0.240240042857145   1.0
H231   H   0.034029370904186   0.579846257679435   0.187537165714289   1.0
H232   H   0.082218839522277   0.474442113537108   0.161362894285716   1.0
H233   H   0.065635898343700   0.312261476865729   0.256045754285715   1.0
H234   H   0.130080026986803   0.380982472988471   0.269651468571432   1.0
H235   H   0.229029201165403   0.193931831340379   0.217971474285712   1.0
H236   H   0.210096335732572   0.256211910314796   0.258765737142859   1.0
H237   H   0.284877346678613   0.477781002542500   0.172920008571431   1.0
H238   H   0.218100593789408   0.419602001717465   0.167448537142860   1.0
H239   H   0.358923934481808   0.184888117484739   0.148282842857142   1.0
H240   H   0.340444705068144   0.226268040529192   0.198005680000001   1.0
H241   H   0.424439376389174   0.505577885339974   0.136477117142860   1.0
H242   H   0.356133471243268   0.464881580478973   0.118391420000002   1.0
H243   H   0.490391076554715   0.266193130137637   0.069711414285713   1.0
H244   H   0.475091027092240   0.214315001566817   0.116659982857144   1.0
H245   H   0.591271056912269   0.515182374670488   0.107177191428569   1.0
H246   H   0.517302165799897   0.536704797535315   0.097494288571426   1.0
H247   H   0.612860417430582   0.421109318031313   0.001057108571430   1.0
H248   H   0.613521351175471   0.306363764951826   0.034862845714287   1.0
H249   H   0.675192316588195   0.445374591260780   0.101728602857143   1.0
H250   H   0.745537043894089   0.456170816107523   0.077237157142854   1.0
H251   H   0.727532875728173   0.159308248504054   0.042808534285712   1.0
H252   H   0.746521848478359   0.098807101605509   0.085988617142860   1.0
H253   H   0.833535943570368   0.278435337576063   0.114880042857145   1.0
H254   H   0.895820305502077   0.241857830079510   0.088665662857146   1.0
H255   H   0.862563633738809   0.949119054871439   0.075614277142854   1.0
H256   H   0.890610791409891   0.921085495238962   0.119165694285712   1.0
H257   H   0.975015928642343   0.130170699399066   0.128108542857142   1.0
H258   H   0.042400760619806   0.074200010521110   0.107634300000001   1.0
H259   H   0.995991896961272   0.788778517497072   0.131137194285714   1.0
H260   H   0.034318762676115   0.801949546559413   0.176465717142854   1.0
H261   H   0.132473082472387   0.992228923635587   0.128468542857142   1.0
H262   H   0.176589196135836   0.893989616837921   0.112914279999998   1.0
H263   H   0.184761858217158   0.694092220031607   0.174488611428572   1.0
H264   H   0.213936445109056   0.769245291221566   0.211371394285713   1.0
H265   H   0.287317900513685   0.958206391997393   0.145825739999999   1.0
H266   H   0.347757796481936   0.865264078917562   0.141511428571427   1.0
H267   H   0.334401572480459   0.763233753944441   0.234522902857144   1.0
H268   H   0.357109705736107   0.889564282310843   0.257420022857140   1.0
H269   H   0.465043579757257   0.972289031734896   0.203017099999997   1.0
H270   H   0.516265452551949   0.850655602632216   0.207762908571432   1.0
H271   H   0.478753998207907   0.994661389787439   0.318808528571431   1.0
H272   H   0.419959922641276   0.919008552605916   0.294637188571429   1.0
H273   H   0.431994361225407   0.285139352644166   0.266148594285717   1.0
H274   H   0.489937518288386   0.202992931409014   0.252140045714285   1.0
H275   H   0.479259460818312   0.338849071432946   0.367454314285716   1.0
H276   H   0.435441391090677   0.214262352187944   0.358751460000001   1.0
H277   H   0.371368679152063   0.541007604829467   0.327945708571427   1.0
H278   H   0.434080720611298   0.503553592085808   0.299911391428573   1.0
H279   H   0.464546851383183   0.717498531964786   0.395942908571428   1.0
H280   H   0.439436971601651   0.588249976621938   0.416368540000001   1.0
H281   H   0.384029451464777   0.858594994013281   0.358065688571429   1.0
H282   H   0.318617731853507   0.850857182802365   0.381842805714285   1.0
H283   H   0.273408758748346   0.590502087103580   0.341074262857141   1.0
H284   H   0.251491073880445   0.676302636376462   0.299605671428573   1.0
H285   H   0.227910428428075   0.928008643191241   0.346814291428572   1.0
H286   H   0.164096914239664   0.891352065231040   0.364971380000000   1.0
H287   H   0.123574731484545   0.710777297184720   0.301742879999999   1.0
H288   H   0.101060950105818   0.816049563746702   0.264008548571425   1.0
H289   H   0.082205863436258   0.017388097088364   0.329585702857145   1.0
H290   H   0.007973528404392   0.980281238995872   0.337737165714287   1.0
H291   H   0.992216633458064   0.871231826423340   0.249142891428569   1.0
H292   H   0.972467281073399   0.023925470913333   0.234700011428572   1.0
H293   H   0.919379361580972   0.090429461982502   0.309485737142857   1.0
H294   H   0.849527077603440   0.035913448802731   0.315337154285714   1.0
H295   H   0.846581147550019   0.059583016393510   0.213371385714282   1.0
H296   H   0.828170962663293   0.206024941486497   0.215080042857146   1.0
H297   H   0.751502402038099   0.178079136660955   0.296208517142858   1.0
H298   H   0.685727762380530   0.137715790047352   0.275682831428568   1.0
H299   H   0.689053925447226   0.256544859798993   0.199125674285718   1.0
H300   H   0.674604794488410   0.405125236511431   0.215334319999997   1.0
H301   H   0.081303075145350   0.100594718024674   0.053337097142858   1.0
H302   H   0.595175925769979   0.282361405614679   0.261528560000002   1.0


# Number_of_total_atoms: 302
# Number_of_atom_type: 3
# Name_of_each_atom: C F H
# Number_of_each_atom: 100 100 102
# Created_by: Lihua Chen (lihua.chen@mse.gatech.edu)
# Tool: VASP
# K-points: 1 1 1
# Pseudopotential: PBE-HSE06
# Material_class: MC_Pol
# Geometry_class: GC_PD
# Bandgap_(eV): 7.33
