#======================================================================

# Note: Disordered slab of polyvinylidene fluoride
# Common_name: Disordered slab-5

#----------------------------------------------------------------------

data_1
_audit_creation_method   'vasp2cif'
_cell_length_a    21.2645054
_cell_length_b    11.6537781
_cell_length_c    35.0
_cell_angle_alpha    90.0
_cell_angle_beta    90.0
_cell_angle_gamma    90.0

_symmetry_space_group_name_H-M    'P 1'
loop_
_atom_site_label
_atom_site_type_symbol
_atom_site_fract_x
_atom_site_fract_y
_atom_site_fract_z
_atom_site_occupancy
C1   C   0.922598505394816   0.231816667248879   0.001982880000000   1.0
C2   C   0.924766465529927   0.459622489293835   0.998148565714288   1.0
C3   C   0.028907429937213   0.503634078977356   0.033737182857145   1.0
C4   C   0.026852399774135   0.727140840273940   0.024200005714285   1.0
C5   C   0.148689200172981   0.761206994322293   0.022637177142855   1.0
C6   C   0.169366901898407   0.979668524836590   0.017454311428573   1.0
C7   C   0.289078080320643   0.022880107868197   0.032137188571426   1.0
C8   C   0.341066174057360   0.815549954567956   0.042859977142854   1.0
C9   C   0.455792566894125   0.893078417204457   0.038834271428570   1.0
C10   C   0.497552230864493   0.711858191293345   0.078128597142857   1.0
C11   C   0.617837196439098   0.770105619224033   0.068537139999997   1.0
C12   C   0.653234248279297   0.658888408043396   0.133205742857143   1.0
C13   C   0.767763128880489   0.614619528408561   0.107017191428568   1.0
C14   C   0.810877209492958   0.569209233527452   0.178868540000003   1.0
C15   C   0.911006502883438   0.448750530096333   0.154639979999999   1.0
C16   C   0.986898232770557   0.548151727721674   0.204245757142857   1.0
C17   C   0.056963600949779   0.366468158510756   0.229479980000001   1.0
C18   C   0.161151342838195   0.499815549087899   0.224499948571427   1.0
C19   C   0.197977884780712   0.405725856407031   0.158091408571430   1.0
C20   C   0.318154679487634   0.473678119888007   0.149071394285713   1.0
C21   C   0.341616372605593   0.372929599543347   0.084037125714289   1.0
C22   C   0.461299386723567   0.342750562583646   0.095554242857140   1.0
C23   C   0.500434983077483   0.301776811762018   0.022751399999997   1.0
C24   C   0.620832784570666   0.279217492565777   0.036545671428570   1.0
C25   C   0.654000793265567   0.185848587592382   0.102188545714284   1.0
C26   C   0.774422098714794   0.136422710846020   0.082697188571430   1.0
C27   C   0.826748709612595   0.077789365150174   0.147985731428569   1.0
C28   C   0.924159938373172   0.971971553156656   0.118554251428570   1.0
C29   C   0.999919988733900   0.011579008870953   0.175434331428569   1.0
C30   C   0.108340281453245   0.901342011995233   0.162625668571430   1.0
C31   C   0.183921663186204   0.019052902680549   0.202211434285715   1.0
C32   C   0.274711416518535   0.871566243397069   0.198339954285714   1.0
C33   C   0.366606316646333   0.029925024915308   0.204611422857141   1.0
C34   C   0.467713845815574   0.898484372205438   0.217614311428569   1.0
C35   C   0.578104313679454   0.997525343304758   0.208677128571431   1.0
C36   C   0.539297904384831   0.199801273030936   0.236417171428570   1.0
C37   C   0.646109666862976   0.305912697960160   0.248465728571432   1.0
C38   C   0.603052008912464   0.425273191017773   0.310754285714289   1.0
C39   C   0.688405534228885   0.591991467556774   0.306637137142857   1.0
C40   C   0.650375000022336   0.676144571518826   0.378599985714288   1.0
C41   C   0.570979821613911   0.814511638933645   0.342539977142856   1.0
C42   C   0.473422833526143   0.759182088768277   0.380342865714283   1.0
C43   C   0.403268354409974   0.933374422154131   0.352565765714289   1.0
C44   C   0.294011197645823   0.825624035178770   0.353997148571430   1.0
C45   C   0.219365713533122   0.991141310644998   0.331902860000000   1.0
C46   C   0.119523264340771   0.846029477770820   0.325731439999998   1.0
C47   C   0.035872129901506   0.013878709429008   0.322731454285716   1.0
C48   C   0.934106005588070   0.893404774885838   0.304031482857141   1.0
C49   C   0.843424432528771   0.059889496265591   0.310425680000002   1.0
C50   C   0.765331819097945   0.934026485367866   0.268768528571428   1.0
C51   C   0.896705676493184   0.347976309931624   0.017397091428570   1.0
C52   C   0.996218938626242   0.466830589472096   0.996902902857144   1.0
C53   C   0.019831281850550   0.627868442080597   0.051014274285713   1.0
C54   C   0.087060722324630   0.737566806768015   0.001260048571432   1.0
C55   C   0.153260216435598   0.876783324027770   0.043637194285715   1.0
C56   C   0.234987953211458   0.006095808534404   0.002594320000000   1.0
C57   C   0.315041585683907   0.925317060910913   0.058651405714286   1.0
C58   C   0.402130378259351   0.839198971876769   0.019939968571428   1.0
C59   C   0.469308014095638   0.837337086416639   0.077454268571429   1.0
C60   C   0.561485102776011   0.691573198909630   0.057682908571429   1.0
C61   C   0.634780929350939   0.769067312170634   0.111314285714286   1.0
C62   C   0.699466172394494   0.575885248750360   0.113608554285712   1.0
C63   C   0.807726442581640   0.650513527454244   0.142777142857142   1.0
C64   C   0.844665919198853   0.455546669453057   0.176714325714286   1.0
C65   C   0.966150033285047   0.526193235136340   0.163005720000001   1.0
C66   C   0.000338738186684   0.449874594746234   0.231771414285717   1.0
C67   C   0.125947095858621   0.401100764051790   0.243040031428571   1.0
C68   C   0.159966184776628   0.502080883108626   0.180208588571432   1.0
C69   C   0.268701401350249   0.394347503493307   0.163294328571432   1.0
C70   C   0.327028702017209   0.482799659622827   0.105928585714288   1.0
C71   C   0.396049771277539   0.290904680946348   0.094765691428570   1.0
C72   C   0.486378667429527   0.385732357474694   0.057242911428574   1.0
C73   C   0.557595964588010   0.219434382399989   0.029417091428570   1.0
C74   C   0.641976013230007   0.296654009569650   0.079065705714285   1.0
C75   C   0.704648564268979   0.101197953992276   0.086319951428571   1.0
C76   C   0.811135894089503   0.166962145949903   0.117854308571431   1.0
C77   C   0.861976413521475   0.961270954695799   0.138899994285715   1.0
C78   C   0.974845194377295   0.049961411226803   0.133571408571427   1.0
C79   C   0.046020463753649   0.915346088492967   0.184568568571429   1.0
C80   C   0.157182278032202   0.996135150368104   0.163902828571430   1.0
C81   C   0.224115403126191   0.923832589535920   0.223234339999998   1.0
C82   C   0.322622279284239   0.956002483005918   0.179822868571428   1.0
C83   C   0.418989439556867   0.982431568694444   0.231222860000003   1.0
C84   C   0.520045117061599   0.934944659706538   0.188948605714288   1.0
C85   C   0.564570027572799   0.076270527237860   0.242294311428573   1.0
C86   C   0.587956473231678   0.292114683391816   0.222294291428568   1.0
C87   C   0.638961586193304   0.324524679254019   0.292339980000001   1.0
C88   C   0.626146846566201   0.540960986720691   0.294134302857145   1.0
C89   C   0.692402763339139   0.603344129231360   0.351085662857145   1.0
C90   C   0.623334596815972   0.794543839821351   0.370451462857140   1.0
C91   C   0.513155720988458   0.735052540600549   0.344937134285715   1.0
C92   C   0.442526300188483   0.874509323289757   0.385799954285716   1.0
C93   C   0.352686430223770   0.857501946085620   0.334237125714289   1.0
C94   C   0.248164878549211   0.922167764632484   0.366191428571426   1.0
C95   C   0.174031919877152   0.913904495916221   0.307425691428570   1.0
C96   C   0.070319161996593   0.920537306266368   0.347379957142856   1.0
C97   C   0.993745295387875   0.965475582549495   0.290614320000003   1.0
C98   C   0.882809289323980   0.957761586347694   0.327111379999998   1.0
C99   C   0.813919796131259   0.040256395477449   0.271508571428569   1.0
C100   C   0.920905576294288   0.216757096138636   0.960017177142859   1.0
F101   F   0.709614595597415   0.963278827147050   0.287462834285712   1.0
F102   F   0.752686338051390   0.914359172498749   0.231322805714285   1.0
F103   F   0.889077899738027   0.143029975832469   0.016088539999998   1.0
F104   F   0.980008836697422   0.215564289833182   0.013588605714283   1.0
F105   F   0.896992525393983   0.468332239825301   0.963862828571429   1.0
F106   F   0.897439213422757   0.551017716735139   0.016048540000000   1.0
F107   F   0.009833409997867   0.432129242275515   0.059145682857142   1.0
F108   F   0.090818148067534   0.491466359737878   0.028905705714287   1.0
F109   F   0.980018166799212   0.712218589437533   0.000425720000003   1.0
F110   F   0.017856168900124   0.823581787609292   0.044134302857145   1.0
F111   F   0.149413407000758   0.675097752204501   0.049111394285717   1.0
F112   F   0.199741405694766   0.746988515252404   0.000288608571431   1.0
F113   F   0.127941043011518   0.987528508029513   0.986511448571427   1.0
F114   F   0.157417374024604   0.066831468157098   0.040654320000002   1.0
F115   F   0.340440723347371   0.059752184572659   0.013502831428575   1.0
F116   F   0.272261357181627   0.106149232410729   0.055914308571431   1.0
F117   F   0.349846016169273   0.748404562465453   0.073682839999997   1.0
F118   F   0.298182439738291   0.773512188291967   0.020857131428571   1.0
F119   F   0.504860244715587   0.888951043267248   0.014182828571428   1.0
F120   F   0.441383564933517   0.003349952235659   0.042574311428574   1.0
F121   F   0.508575285273274   0.683120746910397   0.115614319999999   1.0
F122   F   0.454400571197858   0.639221095174278   0.061594282857143   1.0
F123   F   0.667408064896726   0.743272921937653   0.047779957142858   1.0
F124   F   0.601062811458576   0.880232789055768   0.059879957142854   1.0
F125   F   0.675995149174739   0.685952515261981   0.167602868571429   1.0
F126   F   0.601862275150779   0.594188231540123   0.138019997142855   1.0
F127   F   0.795913343933222   0.525592571562690   0.090754262857146   1.0
F128   F   0.770485952614727   0.695391574342743   0.080457197142856   1.0
F129   F   0.836967635278270   0.627508043936416   0.208677128571431   1.0
F130   F   0.752291318282907   0.543972799688028   0.190122877142855   1.0
F131   F   0.927343619287754   0.339404042711266   0.158565740000000   1.0
F132   F   0.898958312945290   0.461844935935410   0.116560037142854   1.0
F133   F   0.034724644947538   0.626847150968146   0.200574274285714   1.0
F134   F   0.941315263321385   0.609908515419562   0.223574285714285   1.0
F135   F   0.042469974401570   0.283911317995667   0.254188537142859   1.0
F136   F   0.060048525746574   0.326772980171981   0.194097137142855   1.0
F137   F   0.136650335633952   0.597071399531799   0.237425668571426   1.0
F138   F   0.220574281497278   0.501686109846212   0.236222840000003   1.0
F139   F   0.174713793249104   0.306324650200779   0.171968622857143   1.0
F140   F   0.179265970606586   0.415096165251335   0.121248517142860   1.0
F141   F   0.300402152781793   0.580999538681795   0.161497171428572   1.0
F142   F   0.373839073633000   0.448124166702641   0.165148600000002   1.0
F143   F   0.288758312713917   0.313678411295648   0.080908531428570   1.0
F144   F   0.352093893517036   0.409844718083313   0.047782900000001   1.0
F145   F   0.459822714710306   0.433416490056558   0.119194248571425   1.0
F146   F   0.505645534553558   0.272335587031641   0.109882902857144   1.0
F147   F   0.448503396650835   0.235137324263967   0.011199951428573   1.0
F148   F   0.510451646808583   0.373332876485783   0.992800031428573   1.0
F149   F   0.665545792567549   0.211419728336857   0.019802857142857   1.0
F150   F   0.621754503634023   0.384685538160369   0.021822902857146   1.0
F151   F   0.678294784133563   0.214242838552074   0.139305771428575   1.0
F152   F   0.599698980066570   0.133711058047346   0.104568591428574   1.0
F153   F   0.804712020247599   0.054620870119365   0.064494322857144   1.0
F154   F   0.777394187593003   0.228641679731311   0.061917114285713   1.0
F155   F   0.854880085760186   0.135307149876141   0.177391380000003   1.0
F156   F   0.773039517768424   0.046820790246556   0.164374325714285   1.0
F157   F   0.947927140595517   0.864418218157077   0.113962885714287   1.0
F158   F   0.908960892172928   0.006095808534404   0.081871468571428   1.0
F159   F   0.027435517028295   0.107762340180479   0.188200051428573   1.0
F160   F   0.949822420981398   0.993929891285646   0.200328608571425   1.0
F161   F   0.135366553129423   0.802052263205525   0.172551400000003   1.0
F162   F   0.090644130382643   0.886814525840336   0.125617108571426   1.0
F163   F   0.220419107420199   0.111237659484864   0.200037165714285   1.0
F164   F   0.136499915958545   0.047078234654222   0.227605765714287   1.0
F165   F   0.310479988873851   0.802455540147960   0.220011465714286   1.0
F166   F   0.247454756224897   0.805175696626662   0.169042862857140   1.0
F167   F   0.394864702566750   0.094796570736143   0.178962817142860   1.0
F168   F   0.327230869898344   0.104750527213142   0.223848617142856   1.0
F169   F   0.493997029434787   0.834616929937937   0.246768625714289   1.0
F170   F   0.432457883548985   0.824285559375802   0.194074248571425   1.0
F171   F   0.613054588140102   0.910111657265894   0.223154231428573   1.0
F172   F   0.612932332768956   0.046237314232023   0.181831468571431   1.0
F173   F   0.497726243846706   0.197544459852040   0.207165745714285   1.0
F174   F   0.513536665658819   0.239136061806427   0.269988577142854   1.0
F175   F   0.681360874727893   0.211445591194156   0.246077182857142   1.0
F176   F   0.686289331704842   0.386238579572748   0.234065682857143   1.0
F177   F   0.545914531357965   0.421042717468595   0.299814280000000   1.0
F178   F   0.603155430081152   0.418305527887135   0.349208614285715   1.0
F179   F   0.739951520339616   0.532388719500332   0.293762860000001   1.0
F180   F   0.696780932417077   0.697862953131050   0.290948594285716   1.0
F181   F   0.602892080433719   0.606845311393052   0.389137159999997   1.0
F182   F   0.680730758967009   0.688904433490116   0.411240059999997   1.0
F183   F   0.555790190163556   0.927367812160419   0.344605691428569   1.0
F184   F   0.595029207686160   0.792287189679712   0.308022854285717   1.0
F185   F   0.428705165181036   0.679525620965791   0.380980028571429   1.0
F186   F   0.506134650091603   0.734820787432021   0.410662842857143   1.0
F187   F   0.380949481195081   0.036094655002913   0.366102820000002   1.0
F188   F   0.448033115315255   0.952552691903406   0.325754328571428   1.0
F189   F   0.260725687981434   0.745598313734838   0.334794291428572   1.0
F190   F   0.311871984570118   0.779990816883668   0.386968560000000   1.0
F191   F   0.183131614243891   0.082105441839502   0.345214300000002   1.0
F192   F   0.264186892397696   0.045765295634041   0.311585674285716   1.0
F193   F   0.092073761565132   0.788846228331735   0.296445682857140   1.0
F194   F   0.140798167823832   0.769564850389592   0.351068551428568   1.0
F195   F   0.997234659405713   0.075841396019030   0.346494294285712   1.0
F196   F   0.076921756195652   0.090360361332088   0.308451408571429   1.0
F197   F   0.903980766935682   0.863457165020158   0.270074245714284   1.0
F198   F   0.952686249641154   0.797899026411017   0.321768625714284   1.0
F199   F   0.798053050413294   0.090737938454481   0.333848571428568   1.0
F200   F   0.879033071702672   0.154236641935029   0.308005742857141   1.0
H201   H   0.929511579422865   0.122367080251855   0.953997148571432   1.0
H202   H   0.876032729169424   0.239067483188137   0.945042854285717   1.0
H203   H   0.904892981898371   0.348388262172250   0.048337119999999   1.0
H204   H   0.844858672330091   0.352790276657146   0.011525725714286   1.0
H205   H   0.013623754446691   0.529265114461033   0.974985722857141   1.0
H206   H   0.019361047541693   0.386204376072683   0.985511454285714   1.0
H207   H   0.046881062185442   0.643786121172155   0.077208602857141   1.0
H208   H   0.971285327896695   0.630811513392381   0.059525734285714   1.0
H209   H   0.078261998983528   0.811499825966308   0.980651420000001   1.0
H210   H   0.088321000873130   0.661488431807363   0.986968560000001   1.0
H211   H   0.189771745173061   0.855365420077803   0.065711431428575   1.0
H212   H   0.111208906838719   0.898879136886947   0.057759965714283   1.0
H213   H   0.229325954602267   0.093157771727263   0.988328554285715   1.0
H214   H   0.250078819138679   0.938634707657599   0.980834308571431   1.0
H215   H   0.277636506890019   0.907777761788687   0.081962805714284   1.0
H216   H   0.350579642449617   0.966411107484532   0.077448599999997   1.0
H217   H   0.389061619086611   0.878739805419841   0.990977151428574   1.0
H218   H   0.420362601050670   0.751347642358148   0.010431454285715   1.0
H219   H   0.429443456512281   0.843832730949288   0.098411451428568   1.0
H220   H   0.506463832448226   0.891636833208622   0.092388588571431   1.0
H221   H   0.557943981147098   0.701372321479163   0.027260045714286   1.0
H222   H   0.570956228307104   0.605746766364121   0.065905762857142   1.0
H223   H   0.598866597668433   0.814245845302310   0.127397157142859   1.0
H224   H   0.672289434016179   0.833921661851448   0.112242891428572   1.0
H225   H   0.682456606773464   0.558251508152537   0.084039959999998   1.0
H226   H   0.698502115172637   0.494898637206759   0.130300031428568   1.0
H227   H   0.788130393100985   0.729852493072613   0.154380037142857   1.0
H228   H   0.857551245936811   0.663324789065619   0.132551465714286   1.0
H229   H   0.816971896275568   0.392185123209096   0.159788622857143   1.0
H230   H   0.850116311663662   0.424887101634447   0.205708531428570   1.0
H231   H   0.958578759137282   0.615666347722893   0.150280000000002   1.0
H232   H   0.001434423205538   0.483580513687663   0.146840014285715   1.0
H233   H   0.957722877485786   0.396029352918603   0.227542880000001   1.0
H234   H   0.999397959192599   0.487201502489569   0.261879948571426   1.0
H235   H   0.152413749533999   0.321409912550166   0.238194274285718   1.0
H236   H   0.122391889726245   0.413697460053747   0.274977111428569   1.0
H237   H   0.173284209093339   0.588842497352857   0.169054302857141   1.0
H238   H   0.108998650869161   0.497919125472279   0.172428565714284   1.0
H239   H   0.279752709414062   0.310203255028512   0.147948565714287   1.0
H240   H   0.281248130981687   0.368064250339550   0.192662811428569   1.0
H241   H   0.363370878120684   0.550537194457135   0.101831382857142   1.0
H242   H   0.284060376029252   0.509082921357496   0.093382808571427   1.0
H243   H   0.395480738526842   0.216396706575353   0.075502885714286   1.0
H244   H   0.388233901739376   0.250222595194259   0.123851448571429   1.0
H245   H   0.527512965338005   0.438367605437762   0.060954285714288   1.0
H246   H   0.449279356387002   0.439431603730298   0.045691462857142   1.0
H247   H   0.563526053138297   0.172874314468025   0.002874319999996   1.0
H248   H   0.547546377448306   0.169527803176550   0.055251422857140   1.0
H249   H   0.611996529202131   0.356771818059585   0.093234254285711   1.0
H250   H   0.685254682669459   0.344801485451313   0.074520002857142   1.0
H251   H   0.691104858709764   0.080252068640299   0.057397134285715   1.0
H252   H   0.700124546513081   0.019095944516053   0.100802831428574   1.0
H253   H   0.786456208852144   0.237231125929881   0.130225699999997   1.0
H254   H   0.855670134702500   0.208382052512221   0.109039959999997   1.0
H255   H   0.833577022675541   0.904431078879043   0.121428571428574   1.0
H256   H   0.865541039106418   0.909734243180758   0.165511431428570   1.0
H257   H   0.954275846923764   0.138662173428550   0.135317122857146   1.0
H258   H   0.013167604641303   0.056714508748023   0.112948611428571   1.0
H259   H   0.020814173274871   0.834127560743582   0.180845751428571   1.0
H260   H   0.055896080235186   0.924948150505799   0.217125702857146   1.0
H261   H   0.142114906655671   0.078801809346274   0.149397168571426   1.0
H262   H   0.196223872669996   0.981993916633783   0.144308580000001   1.0
H263   H   0.199779078802372   0.852199116439330   0.234577180000002   1.0
H264   H   0.253370675623614   0.970143716740239   0.245454297142857   1.0
H265   H   0.296277913898720   0.016744689861568   0.159288571428569   1.0
H266   H   0.350377465163142   0.901316149137934   0.159882899999999   1.0
H267   H   0.395626497854025   0.942427228814317   0.258140019999999   1.0
H268   H   0.437066478865766   0.061511287914435   0.241974314285713   1.0
H269   H   0.503421156459154   0.982500310349998   0.164848545714285   1.0
H270   H   0.540087948624475   0.854824994479685   0.173922840000003   1.0
H271   H   0.610562200050040   0.080380713615959   0.258942848571429   1.0
H272   H   0.529417580528346   0.036669618756512   0.261691394285712   1.0
H273   H   0.565614006709978   0.373135498435481   0.221111408571431   1.0
H274   H   0.610858458998067   0.264003585240737   0.195165688571429   1.0
H275   H   0.688725301835611   0.323040207879025   0.304242817142857   1.0
H276   H   0.622008433828888   0.249021268046967   0.305682808571426   1.0
H277   H   0.588008136789298   0.597174507724667   0.297888620000002   1.0
H278   H   0.632890488014830   0.521499409706450   0.263168554285713   1.0
H279   H   0.742251065947670   0.622102097516340   0.358828517142854   1.0
H280   H   0.688711222034819   0.518315901347052   0.365745762857145   1.0
H281   H   0.661261714556503   0.859012271737008   0.365085711428570   1.0
H282   H   0.602887415382817   0.828824722516380   0.398939954285716   1.0
H283   H   0.527917409261725   0.648153760538825   0.346468571428574   1.0
H284   H   0.487893012550387   0.748387220449992   0.317534311428574   1.0
H285   H   0.479174253448662   0.934069681659722   0.397611457142858   1.0
H286   H   0.408817512397917   0.877941763795896   0.410651505714284   1.0
H287   H   0.373839073633000   0.779922083809026   0.326697105714288   1.0
H288   H   0.338865295216316   0.894382852544616   0.305457197142857   1.0
H289   H   0.269496199991558   0.985984141915317   0.385234288571425   1.0
H290   H   0.210402354338321   0.886960186756944   0.382417188571431   1.0
H291   H   0.198763268672124   0.845102791171215   0.292677088571430   1.0
H292   H   0.152507755952790   0.974108070583561   0.288468605714286   1.0
H293   H   0.096009902962521   0.953736994528839   0.371562848571429   1.0
H294   H   0.035557027345675   0.865259147160181   0.360422842857140   1.0
H295   H   0.017865588352691   0.899076523518154   0.272611454285716   1.0
H296   H   0.978339406850253   0.037879449583819   0.270342908571429   1.0
H297   H   0.907437127599501   0.994564921396609   0.352837154285716   1.0
H298   H   0.845512381397782   0.893001171868889   0.336031451428575   1.0
H299   H   0.852778052387713   0.036849817828603   0.251825714285715   1.0
H300   H   0.791384665829099   0.125910978174538   0.262097168571430   1.0
H301   H   0.954811871617764   0.269066321075741   0.945177131428572   1.0
H302   H   0.783954401309515   0.851023652149337   0.282042805714283   1.0


# Number_of_total_atoms: 302
# Number_of_atom_type: 3
# Name_of_each_atom: C F H
# Number_of_each_atom: 100 100 102
# Created_by: Lihua Chen (lihua.chen@mse.gatech.edu)
# Tool: VASP
# K-points: 1 1 1
# Pseudopotential: PBE-HSE06
# Material_class: MC_Pol
# Geometry_class: GC_PD
# Bandgap_(eV): 7.78
