# generated using pymatgen
data_H6C14N2S2
_symmetry_space_group_name_H-M   'P 1'
_cell_length_a                         5.57241
_cell_length_b                         3.65903
_cell_length_c                         12.32154
_cell_angle_alpha                      90.66063
_cell_angle_beta                       90.22761
_cell_angle_gamma                      88.27035
_symmetry_Int_Tables_number   1
_chemical_formula_structural   H6C14N2S2
_chemical_formula_sum   'H6 C14 N2 S2'
_cell_volume   251.099
_cell_formula_units_Z   1
loop_
 _symmetry_equiv_pos_site_id
 _symmetry_equiv_pos_as_xyz
  1  'x, y, z'
loop_
 _atom_site_type_symbol
 _atom_site_label
 _atom_site_symmetry_multiplicity
 _atom_site_fract_x
 _atom_site_fract_y
 _atom_site_fract_z
 _atom_site_occupancy
 H   H1    1 0.776923  0.189748 0.091386 1 
 H   H2    1 0.473306  0.674457 0.033804 1 
 H   H3    1 0.546943  0.630610 0.230424 1 
 H   H4    1 0.336230  0.798017 0.591056 1 
 H   H5    1 0.565063  0.352880 0.731096 1 
 H   H6    1 0.638696  0.309016 0.534457 1 
 C   C1    1 0.942754  0.069075 0.122688 1 
 C   C2    1 0.119125  0.935774 0.049707 1 
 C   C3    1 0.337205  0.778346 0.090102 1 
 C   C4    1 0.381335  0.752864 0.200445 1 
 C   C5    1 0.208238  0.887517 0.274631 1 
 C   C6    1 0.034892  0.023467 0.433152 1 
 C   C7    1 0.989104  0.044628 0.233634 1 
 C   C8    1 0.993649  0.050639 0.549870 1 
 C   C9    1 0.170232  0.918013 0.622586 1 
 C   C10   1 0.123971  0.942650 0.733530 1 
 C   C11   1 0.078128  0.963898 0.933017 1 
 C   C12   1 0.904607  0.098953 0.774787 1 
 C   C13   1 0.731084  0.232104 0.700891 1 
 C   C14   1 0.775166  0.206595 0.590541 1 
 N   N1    1 0.228514  0.879939 0.386629 1 
 N   N2    1 0.884348  0.106799 0.886757 1 
 S   S1    1 0.806495  0.181461 0.342084 1 
 S   S2    1 0.306994  0.807550 0.841727 1 
 
# Source:                           Huan_etal:SciData.3.160012(2016)                                                
# Class:                            common_polymer_crystal 
# Label:                            2-6-benzothiazole                                                         
# Material_class:                    MC_pol
# Geometry_class:                    GC_cry
# Structure_prediction_method_used: N/A
# Number_of_atoms:                   24
# Number_of_atom_types:               4
# Atom_types:                       H  C  N  S
# Dielectric_constant_electronic:   5.45741E+00
# Dielectric_constant_ionic:        2.52604E-01
# Dielectric_constant_total:        5.71002E+00
# Band_gap_at_the_GGA_level_(eV):   1.07500E+00
# Band_gap_at_the_HSE06_level_(eV): 1.63130E+00
# Atomization_energy_(eV/atom):    -6.61294E+00
# Volume_of_the_unit_cell_(A^3):    2.51099E+02
# Simulation_tool:                   VASP-5.X
# Pseudopotential:                   PAW
# Simulation_conditions:             ENCUT=400eV,k-spacing_relax=0.25/Angstrom,k-spacing_bandgap=0.20/Angstrom
# File_description:                  Structural information in CIF format
# Note:                              N/A 
# Created_by:                        Huan Tran (huan.tran@uconn.edu)

