# generated using pymatgen
data_H2C
_symmetry_space_group_name_H-M   'P 1'
_cell_length_a   2.56458678
_cell_length_b   4.63049555
_cell_length_c   6.70500758
_cell_angle_alpha   89.99934952
_cell_angle_beta   89.99992933
_cell_angle_gamma   90.00013901
_symmetry_Int_Tables_number   1
_chemical_formula_structural   H2C
_chemical_formula_sum   'H8 C4'
_cell_volume   79.6240279743
_cell_formula_units_Z   4
loop_
 _symmetry_equiv_pos_site_id
 _symmetry_equiv_pos_as_xyz
  1  'x, y, z'
loop_
 _atom_site_type_symbol
 _atom_site_label
 _atom_site_symmetry_multiplicity
 _atom_site_fract_x
 _atom_site_fract_y
 _atom_site_fract_z
 _atom_site_occupancy
  C  C1  1  0.250000  0.936596  0.954795  1
  C  C2  1  0.750000  0.063408  0.045208  1
  C  C3  1  0.749999  0.436593  0.545207  1
  C  C4  1  0.249999  0.563403  0.454791  1
  H  H5  1  0.249999  0.972808  0.793074  1
  H  H6  1  0.749998  0.027195  0.206928  1
  H  H7  1  0.749996  0.472805  0.706926  1
  H  H8  1  0.249998  0.527193  0.293072  1
  H  H9  1  0.250002  0.701314  0.975841  1
  H  H10  1  0.750004  0.298689  0.024162  1
  H  H11  1  0.750001  0.201310  0.524164  1
  H  H12  1  0.250003  0.798687  0.475833  1
 
# Number_of_atoms:                    12
# Number_of_atom_types:                2
# Atom_types:                         C  H
# Atom_numbers:                        4     8
# Material_class:                    MC_pol
# Geometry_class:                    GC_cry
# Source:                            Peacock:HandbookofPolyethylene.CRCPress.1ed.(2000)                              
# Class:                             common_polymer_crystal                                                          
# Label:                             Polyethylene                                                                      
# Structure_prediction_method_used:  NA                                                                              
# Number_of_atoms:                    12
# Number_of_atom_types:                2
# Atom_types:                         C  H
# Dielectric_constant_electronic:    2.71544E+00
# Dielectric_constant_ionic:         2.41670E-02
# Dielectric_constant_total:         2.73961E+00
# Band_gap_at_the_GGA_level_(eV):    6.68270E+00
# Band_gap_at_the_HSE06_level_(eV):  8.13610E+00
# Atomization_energy_(eV/atom):     -5.15307E+00
# Volume_of_the_unit_cell_(A^3):     7.96240E+01
# Simulation_tool:                   VASP-5.X
# Pseudopotential:                   PAW
# Simulation_conditions:             ENCUT=400eV,k-spacing_relax=0.25/Angstrom,k-spacing_bandgap=0.20/Angstrom
# File_description:                  Structural information in CIF format
# Note:                              N/A 
# Created_by:                        Huan Tran (huan.tran@uconn.edu)
