# generated using pymatgen
data_H3C2F
_symmetry_space_group_name_H-M   'P 1'
_cell_length_a   4.97607753
_cell_length_b   2.54143090
_cell_length_c   6.39549713
_cell_angle_alpha   90.00000000
_cell_angle_beta   97.51187960
_cell_angle_gamma   90.00000000
_symmetry_Int_Tables_number   1
_chemical_formula_structural   H3C2F
_chemical_formula_sum   'H6 C4 F2'
_cell_volume   80.1856130769
_cell_formula_units_Z   2
loop_
 _symmetry_equiv_pos_site_id
 _symmetry_equiv_pos_as_xyz
  1  'x, y, z'
loop_
 _atom_site_type_symbol
 _atom_site_label
 _atom_site_symmetry_multiplicity
 _atom_site_fract_x
 _atom_site_fract_y
 _atom_site_fract_z
 _atom_site_occupancy
  C  C1  1  0.127387  0.000000  0.329958  1
  C  C2  1  0.240043  0.500000  0.246318  1
  C  C3  1  0.625541  0.500000  0.828915  1
  C  C4  1  0.736623  0.000000  0.744031  1
  F  F5  1  0.832008  0.000000  0.262438  1
  F  F6  1  0.329465  0.500000  0.764489  1
  H  H7  1  0.146542  0.000000  0.500555  1
  H  H8  1  0.459153  0.500000  0.294112  1
  H  H9  1  0.207019  0.500000  0.074190  1
  H  H10  1  0.647819  0.500000  0.999611  1
  H  H11  1  0.956023  0.000000  0.790292  1
  H  H12  1  0.701476  0.000000  0.571930  1
 
# Number_of_atoms:                    12
# Number_of_atom_types:                3
# Atom_types:                         C  F  H
# Atom_numbers:                        4     2     6
# Material_class:                    MC_pol
# Geometry_class:                    GC_cry
# Source:                            Lando-Hanes:Macromolecules.28.1142(1995)                                        
# Class:                             common_polymer_crystal                                                          
# Label:                             Poly(vinyl fluoride)                                                                
# Structure_prediction_method_used:  NA                                                                              
# Number_of_atoms:                    12
# Number_of_atom_types:                3
# Atom_types:                         C  F  H
# Dielectric_constant_electronic:    2.65765E+00
# Dielectric_constant_ionic:         5.63294E-01
# Dielectric_constant_total:         3.22095E+00
# Band_gap_at_the_GGA_level_(eV):    6.37260E+00
# Band_gap_at_the_HSE06_level_(eV):  8.30990E+00
# Atomization_energy_(eV/atom):     -5.17949E+00
# Volume_of_the_unit_cell_(A^3):     8.01856E+01
# Simulation_tool:                   VASP-5.X
# Pseudopotential:                   PAW
# Simulation_conditions:             ENCUT=400eV,k-spacing_relax=0.25/Angstrom,k-spacing_bandgap=0.20/Angstrom
# File_description:                  Structural information in CIF format
# Note:                              N/A 
# Created_by:                        Huan Tran (huan.tran@uconn.edu)
