# generated using pymatgen
data_H3C3N
_symmetry_space_group_name_H-M   'P 1'
_cell_length_a   5.68676853
_cell_length_b   5.68676853
_cell_length_c   5.13150956
_cell_angle_alpha   90.00270314
_cell_angle_beta   90.00270314
_cell_angle_gamma   132.66741211
_symmetry_Int_Tables_number   1
_chemical_formula_structural   H3C3N
_chemical_formula_sum   'H6 C6 N2'
_cell_volume   122.02278143
_cell_formula_units_Z   2
loop_
 _symmetry_equiv_pos_site_id
 _symmetry_equiv_pos_as_xyz
  1  'x, y, z'
loop_
 _atom_site_type_symbol
 _atom_site_label
 _atom_site_symmetry_multiplicity
 _atom_site_fract_x
 _atom_site_fract_y
 _atom_site_fract_z
 _atom_site_occupancy
  C  C1  1  0.665037  0.665025  0.404306  1
  C  C2  1  0.665025  0.665037  0.904306  1
  C  C3  1  0.485405  0.468061  0.654285  1
  C  C4  1  0.468061  0.485405  0.154285  1
  C  C5  1  0.429189  0.175187  0.654273  1
  C  C6  1  0.175187  0.429189  0.154273  1
  H  H7  1  0.887399  0.717038  0.387878  1
  H  H8  1  0.717038  0.887399  0.887878  1
  H  H9  1  0.717197  0.887441  0.420732  1
  H  H10  1  0.887441  0.717197  0.920732  1
  H  H11  1  0.250280  0.395385  0.654272  1
  H  H12  1  0.395385  0.250280  0.154272  1
  N  N13  1  0.377771  0.939586  0.654253  1
  N  N14  1  0.939586  0.377771  0.154253  1
 
# Number_of_atoms:                    14
# Number_of_atom_types:                3
# Atom_types:                         C  H  N
# Atom_numbers:                        6     6     2
# Material_class:                    MC_pol
# Geometry_class:                    GC_cry
# Source:                            Hobson-Windle:Macromolecules.26.6903(1993)                                      
# Class:                             common_polymer_crystal                                                          
# Label:                             Polyacrylonitrile                                                              
# Structure_prediction_method_used:  NA                                                                              
# Number_of_atoms:                    14
# Number_of_atom_types:                3
# Atom_types:                         C  H  N
# Dielectric_constant_electronic:    2.73347E+00
# Dielectric_constant_ionic:         5.00587E-01
# Dielectric_constant_total:         3.23406E+00
# Band_gap_at_the_GGA_level_(eV):    6.06620E+00
# Band_gap_at_the_HSE06_level_(eV):  7.58030E+00
# Atomization_energy_(eV/atom):     -6.10137E+00
# Volume_of_the_unit_cell_(A^3):     1.22023E+02
# Simulation_tool:                   VASP-5.X
# Pseudopotential:                   PAW
# Simulation_conditions:             ENCUT=400eV,k-spacing_relax=0.25/Angstrom,k-spacing_bandgap=0.20/Angstrom
# File_description:                  Structural information in CIF format
# Note:                              N/A 
# Created_by:                        Huan Tran (huan.tran@uconn.edu)
