# generated using pymatgen
data_H3C2NO
_symmetry_space_group_name_H-M   'P 1'
_cell_length_a   3.56962464
_cell_length_b   6.94021700
_cell_length_c   4.33170872
_cell_angle_alpha   90.00000000
_cell_angle_beta   106.94071756
_cell_angle_gamma   90.00000000
_symmetry_Int_Tables_number   1
_chemical_formula_structural   H3C2NO
_chemical_formula_sum   'H6 C4 N2 O2'
_cell_volume   102.656933924
_cell_formula_units_Z   2
loop_
 _symmetry_equiv_pos_site_id
 _symmetry_equiv_pos_as_xyz
  1  'x, y, z'
loop_
 _atom_site_type_symbol
 _atom_site_label
 _atom_site_symmetry_multiplicity
 _atom_site_fract_x
 _atom_site_fract_y
 _atom_site_fract_z
 _atom_site_occupancy
  N  N1  1  0.086645  0.865501  0.560193  1
  N  N2  1  0.913355  0.365501  0.439807  1
  H  H3  1  0.284498  0.846365  0.782226  1
  H  H4  1  0.715502  0.346365  0.217774  1
  H  H5  1  0.885312  0.041378  0.152060  1
  H  H6  1  0.114688  0.541378  0.847940  1
  H  H7  1  0.394244  0.028672  0.308191  1
  H  H8  1  0.605756  0.528672  0.691809  1
  C  C9  1  0.124056  0.037292  0.374661  1
  C  C10  1  0.875944  0.537292  0.625339  1
  C  C11  1  0.142882  0.217003  0.578668  1
  C  C12  1  0.857118  0.717003  0.421332  1
  O  O13  1  0.373042  0.221788  0.859675  1
  O  O14  1  0.626958  0.721788  0.140325  1
 
# Number_of_atoms:                    14
# Number_of_atom_types:                4
# Atom_types:                         N  H  C  O
# Atom_numbers:                        2     6     4     2
# Material_class:                    MC_pol
# Geometry_class:                    GC_cry
# Source:                            Lotz:J.Mol.Biol.87.169(1974)                                                    
# Class:                             common_polymer_crystal                                                          
# Label:                             Polyglycine                                                                    
# Structure_prediction_method_used:  NA                                                                              
# Number_of_atoms:                    14
# Number_of_atom_types:                4
# Atom_types:                         N  H  C  O
# Dielectric_constant_electronic:    3.00572E+00
# Dielectric_constant_ionic:         1.14306E+00
# Dielectric_constant_total:         4.14879E+00
# Band_gap_at_the_GGA_level_(eV):    4.12650E+00
# Band_gap_at_the_HSE06_level_(eV):  5.72890E+00
# Atomization_energy_(eV/atom):     -5.91293E+00
# Volume_of_the_unit_cell_(A^3):     1.02657E+02
# Simulation_tool:                   VASP-5.X
# Pseudopotential:                   PAW
# Simulation_conditions:             ENCUT=400eV,k-spacing_relax=0.25/Angstrom,k-spacing_bandgap=0.20/Angstrom
# File_description:                  Structural information in CIF format
# Note:                              N/A 
# Created_by:                        Huan Tran (huan.tran@uconn.edu)
