# generated using pymatgen
data_H6C10S
_symmetry_space_group_name_H-M   'P 1'
_cell_length_a   3.64867600
_cell_length_b   5.65520000
_cell_length_c   8.26509541
_cell_angle_alpha   90.00959057
_cell_angle_beta   90.01437466
_cell_angle_gamma   94.67433752
_symmetry_Int_Tables_number   1
_chemical_formula_structural   H6C10S
_chemical_formula_sum   'H6 C10 S1'
_cell_volume   169.974683635
_cell_formula_units_Z   1
loop_
 _symmetry_equiv_pos_site_id
 _symmetry_equiv_pos_as_xyz
  1  'x, y, z'
loop_
 _atom_site_type_symbol
 _atom_site_label
 _atom_site_symmetry_multiplicity
 _atom_site_fract_x
 _atom_site_fract_y
 _atom_site_fract_z
 _atom_site_occupancy
  C  C1  1  0.374793  0.272304  0.835764  1
  C  C2  1  0.374796  0.272303  0.665196  1
  C  C3  1  0.514700  0.484163  0.903581  1
  C  C4  1  0.514703  0.484161  0.597456  1
  C  C5  1  0.694861  0.330199  0.166790  1
  C  C6  1  0.694856  0.330197  0.334246  1
  C  C7  1  0.564630  0.519790  0.078410  1
  C  C8  1  0.564630  0.519787  0.422645  1
  C  C9  1  0.461064  0.717215  0.165883  1
  C  C10  1  0.461066  0.717214  0.335196  1
  H  H11  1  0.354144  0.864300  0.101942  1
  H  H12  1  0.268821  0.121912  0.593281  1
  H  H13  1  0.268813  0.121913  0.907621  1
  H  H14  1  0.797016  0.182417  0.398931  1
  H  H15  1  0.797035  0.182423  0.102093  1
  H  H16  1  0.354143  0.864293  0.399150  1
  S  S17  1  0.644968  0.689260  0.750555  1
 
# Number_of_atoms:                    17
# Number_of_atom_types:                3
# Atom_types:                         C  H  S
# Atom_numbers:                       10     6     1
# Material_class:                    MC_pol
# Geometry_class:                    GC_cry
# Source:                            Mannodi-Kanakkithodi_etal:SciRep.inpress(2016)                                  
# Class:                             organic_polymer_crystal                                                         
# Label:                             C6H4-C4H2S-C6H4-C4H2S                                                           
# Structure_prediction_method_used:  minima-hopping                                                                  
# Number_of_atoms:                    17
# Number_of_atom_types:                3
# Atom_types:                         C  H  S
# Dielectric_constant_electronic:    4.13326E+00
# Dielectric_constant_ionic:         1.20228E-01
# Dielectric_constant_total:         4.25349E+00
# Band_gap_at_the_GGA_level_(eV):    1.39630E+00
# Band_gap_at_the_HSE06_level_(eV):  2.06060E+00
# Atomization_energy_(eV/atom):     -6.28060E+00
# Volume_of_the_unit_cell_(A^3):     1.69975E+02
# Simulation_tool:                   VASP-5.X
# Pseudopotential:                   PAW
# Simulation_conditions:             ENCUT=400eV,k-spacing_relax=0.25/Angstrom,k-spacing_bandgap=0.20/Angstrom
# File_description:                  Structural information in CIF format
# Note:                              N/A 
# Created_by:                        Huan Tran (huan.tran@uconn.edu)
