# generated using pymatgen
data_H5C6S2N
_symmetry_space_group_name_H-M   'P 1'
_cell_length_a   5.15435554
_cell_length_b   5.68718145
_cell_length_c   6.25633282
_cell_angle_alpha   64.93363884
_cell_angle_beta   83.12956178
_cell_angle_gamma   66.62013331
_symmetry_Int_Tables_number   1
_chemical_formula_structural   H5C6S2N
_chemical_formula_sum   'H5 C6 S2 N1'
_cell_volume   152.224526658
_cell_formula_units_Z   1
loop_
 _symmetry_equiv_pos_site_id
 _symmetry_equiv_pos_as_xyz
  1  'x, y, z'
loop_
 _atom_site_type_symbol
 _atom_site_label
 _atom_site_symmetry_multiplicity
 _atom_site_fract_x
 _atom_site_fract_y
 _atom_site_fract_z
 _atom_site_occupancy
  C  C1  1  0.884112  0.143298  0.685595  1
  C  C2  1  0.068090  0.140876  0.496510  1
  C  C3  1  0.063461  0.969601  0.395245  1
  C  C4  1  0.740829  0.969754  0.730669  1
  C  C5  1  0.393639  0.036463  0.036809  1
  C  C6  1  0.253025  0.857042  0.229114  1
  H  H7  1  0.135545  0.795505  0.140621  1
  H  H8  1  0.866883  0.259925  0.788077  1
  H  H9  1  0.204231  0.257105  0.442689  1
  H  H10  1  0.425681  0.658750  0.336752  1
  H  H11  1  0.573350  0.690982  0.963139  1
  N  N12  1  0.568793  0.888149  0.916549  1
  S  S13  1  0.820482  0.813907  0.530145  1
  S  S14  1  0.334121  0.368941  0.975997  1
 
# Number_of_atoms:                    14
# Number_of_atom_types:                4
# Atom_types:                         C  H  N  S
# Atom_numbers:                        6     5     1     2
# Material_class:                    MC_pol
# Geometry_class:                    GC_cry
# Source:                            Mannodi-Kanakkithodi_etal:SciRep.inpress(2016)                                  
# Class:                             organic_polymer_crystal                                                         
# Label:                             CH2-C4H2S-NH-CS                                                                 
# Structure_prediction_method_used:  minima-hopping                                                                  
# Number_of_atoms:                    14
# Number_of_atom_types:                4
# Atom_types:                         C  H  N  S
# Dielectric_constant_electronic:    3.92739E+00
# Dielectric_constant_ionic:         5.35895E-01
# Dielectric_constant_total:         4.46328E+00
# Band_gap_at_the_GGA_level_(eV):    1.86180E+00
# Band_gap_at_the_HSE06_level_(eV):  2.84690E+00
# Atomization_energy_(eV/atom):     -5.77104E+00
# Volume_of_the_unit_cell_(A^3):     1.52225E+02
# Simulation_tool:                   VASP-5.X
# Pseudopotential:                   PAW
# Simulation_conditions:             ENCUT=400eV,k-spacing_relax=0.25/Angstrom,k-spacing_bandgap=0.20/Angstrom
# File_description:                  Structural information in CIF format
# Note:                              N/A 
# Created_by:                        Huan Tran (huan.tran@uconn.edu)
