# generated using pymatgen
data_H4C5S
_symmetry_space_group_name_H-M   'P 1'
_cell_length_a   4.55839897
_cell_length_b   6.00769725
_cell_length_c   8.44858744
_cell_angle_alpha   105.75093207
_cell_angle_beta   95.32106017
_cell_angle_gamma   112.34338237
_symmetry_Int_Tables_number   1
_chemical_formula_structural   H4C5S
_chemical_formula_sum   'H8 C10 S2'
_cell_volume   200.91170788
_cell_formula_units_Z   2
loop_
 _symmetry_equiv_pos_site_id
 _symmetry_equiv_pos_as_xyz
  1  'x, y, z'
loop_
 _atom_site_type_symbol
 _atom_site_label
 _atom_site_symmetry_multiplicity
 _atom_site_fract_x
 _atom_site_fract_y
 _atom_site_fract_z
 _atom_site_occupancy
  C  C1  1  0.200173  0.624040  0.384269  1
  C  C2  1  0.927312  0.503234  0.245410  1
  C  C3  1  0.040796  0.452301  0.747747  1
  C  C4  1  0.767928  0.331490  0.608889  1
  C  C5  1  0.348236  0.886269  0.428490  1
  C  C6  1  0.864570  0.670493  0.179775  1
  C  C7  1  0.619852  0.069261  0.564679  1
  C  C8  1  0.103518  0.285045  0.813395  1
  C  C9  1  0.601979  0.620124  0.035488  1
  C  C10  1  0.366106  0.335407  0.957680  1
  H  H11  1  0.712049  0.686234  0.937183  1
  H  H12  1  0.781094  0.298717  0.197327  1
  H  H13  1  0.187030  0.656813  0.795816  1
  H  H14  1  0.280092  0.520463  0.451598  1
  H  H15  1  0.688021  0.435065  0.541554  1
  H  H16  1  0.464750  0.732030  0.078838  1
  H  H17  1  0.256034  0.269285  0.055980  1
  H  H18  1  0.503335  0.223503  0.914326  1
  S  S19  1  0.148438  0.984462  0.291201  1
  S  S20  1  0.819641  0.971079  0.701979  1
 
# Number_of_atoms:                    20
# Number_of_atom_types:                3
# Atom_types:                         C  H  S
# Atom_numbers:                       10     8     2
# Material_class:                    MC_pol
# Geometry_class:                    GC_cry
# Source:                            Mannodi-Kanakkithodi_etal:SciRep.inpress(2016)                                  
# Class:                             organic_polymer_crystal                                                         
# Label:                             CH2-CH2-C4H2S-C4H2S                                                             
# Structure_prediction_method_used:  minima-hopping                                                                  
# Number_of_atoms:                    20
# Number_of_atom_types:                3
# Atom_types:                         C  H  S
# Dielectric_constant_electronic:    3.70509E+00
# Dielectric_constant_ionic:         1.20754E-01
# Dielectric_constant_total:         3.82585E+00
# Band_gap_at_the_GGA_level_(eV):    1.95110E+00
# Band_gap_at_the_HSE06_level_(eV):  2.73150E+00
# Atomization_energy_(eV/atom):     -5.85900E+00
# Volume_of_the_unit_cell_(A^3):     2.00912E+02
# Simulation_tool:                   VASP-5.X
# Pseudopotential:                   PAW
# Simulation_conditions:             ENCUT=400eV,k-spacing_relax=0.25/Angstrom,k-spacing_bandgap=0.20/Angstrom
# File_description:                  Structural information in CIF format
# Note:                              N/A 
# Created_by:                        Huan Tran (huan.tran@uconn.edu)
