# generated using pymatgen
data_H6C6SO
_symmetry_space_group_name_H-M   'P 1'
_cell_length_a   4.02779602
_cell_length_b   5.64548501
_cell_length_c   6.03011985
_cell_angle_alpha   73.03619121
_cell_angle_beta   80.61022668
_cell_angle_gamma   90.73733011
_symmetry_Int_Tables_number   1
_chemical_formula_structural   H6C6SO
_chemical_formula_sum   'H6 C6 S1 O1'
_cell_volume   129.128752605
_cell_formula_units_Z   1
loop_
 _symmetry_equiv_pos_site_id
 _symmetry_equiv_pos_as_xyz
  1  'x, y, z'
loop_
 _atom_site_type_symbol
 _atom_site_label
 _atom_site_symmetry_multiplicity
 _atom_site_fract_x
 _atom_site_fract_y
 _atom_site_fract_z
 _atom_site_occupancy
  C  C1  1  0.238065  0.765244  0.929228  1
  C  C2  1  0.028559  0.580546  0.119360  1
  C  C3  1  0.906885  0.387127  0.055501  1
  C  C4  1  0.269002  0.708656  0.721072  1
  C  C5  1  0.635513  0.059972  0.448479  1
  C  C6  1  0.675359  0.160786  0.181240  1
  H  H7  1  0.761766  0.008931  0.112084  1
  H  H8  1  0.497681  0.179956  0.539302  1
  H  H9  1  0.360806  0.926924  0.948579  1
  H  H10  1  0.968841  0.596025  0.296122  1
  H  H11  1  0.874121  0.018854  0.511307  1
  H  H12  1  0.422437  0.196320  0.140125  1
  O  O13  1  0.434146  0.824142  0.497698  1
  S  S14  1  0.046799  0.429009  0.753592  1
 
# Number_of_atoms:                    14
# Number_of_atom_types:                4
# Atom_types:                         C  H  O  S
# Atom_numbers:                        6     6     1     1
# Material_class:                    MC_pol
# Geometry_class:                    GC_cry
# Source:                            Mannodi-Kanakkithodi_etal:SciRep.inpress(2016)                                  
# Class:                             organic_polymer_crystal                                                         
# Label:                             CH2-CH2-C4H2S-O                                                                 
# Structure_prediction_method_used:  minima-hopping                                                                  
# Number_of_atoms:                    14
# Number_of_atom_types:                4
# Atom_types:                         C  H  O  S
# Dielectric_constant_electronic:    3.23866E+00
# Dielectric_constant_ionic:         3.63855E-01
# Dielectric_constant_total:         3.60251E+00
# Band_gap_at_the_GGA_level_(eV):    3.06120E+00
# Band_gap_at_the_HSE06_level_(eV):  4.16080E+00
# Atomization_energy_(eV/atom):     -5.66684E+00
# Volume_of_the_unit_cell_(A^3):     1.29129E+02
# Simulation_tool:                   VASP-5.X
# Pseudopotential:                   PAW
# Simulation_conditions:             ENCUT=400eV,k-spacing_relax=0.25/Angstrom,k-spacing_bandgap=0.20/Angstrom
# File_description:                  Structural information in CIF format
# Note:                              N/A 
# Created_by:                        Huan Tran (huan.tran@uconn.edu)
