# generated using pymatgen
data_H2C2S
_symmetry_space_group_name_H-M   'P 1'
_cell_length_a   4.61125703
_cell_length_b   4.65490303
_cell_length_c   6.13094507
_cell_angle_alpha   91.41380549
_cell_angle_beta   110.60358127
_cell_angle_gamma   95.99968379
_symmetry_Int_Tables_number   1
_chemical_formula_structural   H2C2S
_chemical_formula_sum   'H4 C4 S2'
_cell_volume   122.240987632
_cell_formula_units_Z   2
loop_
 _symmetry_equiv_pos_site_id
 _symmetry_equiv_pos_as_xyz
  1  'x, y, z'
loop_
 _atom_site_type_symbol
 _atom_site_label
 _atom_site_symmetry_multiplicity
 _atom_site_fract_x
 _atom_site_fract_y
 _atom_site_fract_z
 _atom_site_occupancy
  C  C1  1  0.027657  0.920089  0.433912  1
  C  C2  1  0.901014  0.605081  0.425796  1
  C  C3  1  0.994375  0.121248  0.620556  1
  C  C4  1  0.113194  0.435002  0.612696  1
  H  H5  1  0.277322  0.938517  0.457833  1
  H  H6  1  0.338834  0.449109  0.586829  1
  H  H7  1  0.910855  0.008956  0.265729  1
  H  H8  1  0.159496  0.551205  0.781605  1
  S  S9  1  0.565327  0.470759  0.229226  1
  S  S10  1  0.841579  0.017923  0.814596  1
 
# Number_of_atoms:                    10
# Number_of_atom_types:                3
# Atom_types:                         C  H  S
# Atom_numbers:                        4     4     2
# Material_class:                    MC_pol
# Geometry_class:                    GC_cry
# Source:                            Mannodi-Kanakkithodi_etal:SciRep.inpress(2016)                                  
# Class:                             organic_polymer_crystal                                                         
# Label:                             CH2-CS-CH2-CS                                                                   
# Structure_prediction_method_used:  minima-hopping                                                                  
# Number_of_atoms:                    10
# Number_of_atom_types:                3
# Atom_types:                         C  H  S
# Dielectric_constant_electronic:    3.74281E+00
# Dielectric_constant_ionic:         2.15092E-01
# Dielectric_constant_total:         3.95790E+00
# Band_gap_at_the_GGA_level_(eV):    1.30640E+00
# Band_gap_at_the_HSE06_level_(eV):  2.56380E+00
# Atomization_energy_(eV/atom):     -5.29755E+00
# Volume_of_the_unit_cell_(A^3):     1.22241E+02
# Simulation_tool:                   VASP-5.X
# Pseudopotential:                   PAW
# Simulation_conditions:             ENCUT=400eV,k-spacing_relax=0.25/Angstrom,k-spacing_bandgap=0.20/Angstrom
# File_description:                  Structural information in CIF format
# Note:                              N/A 
# Created_by:                        Huan Tran (huan.tran@uconn.edu)
