# generated using pymatgen
data_H3C2SNO
_symmetry_space_group_name_H-M   'P 1'
_cell_length_a   3.73336053
_cell_length_b   4.96326378
_cell_length_c   4.70667266
_cell_angle_alpha   103.99044281
_cell_angle_beta   92.61553294
_cell_angle_gamma   99.57803539
_symmetry_Int_Tables_number   1
_chemical_formula_structural   H3C2SNO
_chemical_formula_sum   'H3 C2 S1 N1 O1'
_cell_volume   83.1095783161
_cell_formula_units_Z   1
loop_
 _symmetry_equiv_pos_site_id
 _symmetry_equiv_pos_as_xyz
  1  'x, y, z'
loop_
 _atom_site_type_symbol
 _atom_site_label
 _atom_site_symmetry_multiplicity
 _atom_site_fract_x
 _atom_site_fract_y
 _atom_site_fract_z
 _atom_site_occupancy
  C  C1  1  0.386114  0.935227  0.084278  1
  C  C2  1  0.536331  0.099302  0.394717  1
  H  H3  1  0.415014  0.712413  0.042064  1
  H  H4  1  0.399472  0.737208  0.533566  1
  H  H5  1  0.100285  0.949505  0.045634  1
  N  N6  1  0.432756  0.954514  0.592822  1
  S  S7  1  0.786232  0.422980  0.479303  1
  O  O8  1  0.597224  0.071551  0.885837  1
 
# Number_of_atoms:                     8
# Number_of_atom_types:                5
# Atom_types:                         C  H  N  S  O
# Atom_numbers:                        2     3     1     1     1
# Material_class:                    MC_pol
# Geometry_class:                    GC_cry
# Source:                            Mannodi-Kanakkithodi_etal:SciRep.inpress(2016)                                  
# Class:                             organic_polymer_crystal                                                         
# Label:                             CH2-CS-NH-O                                                                     
# Structure_prediction_method_used:  minima-hopping                                                                  
# Number_of_atoms:                     8
# Number_of_atom_types:                5
# Atom_types:                         C  H  N  S  O
# Dielectric_constant_electronic:    3.77582E+00
# Dielectric_constant_ionic:         1.16072E+00
# Dielectric_constant_total:         4.93654E+00
# Band_gap_at_the_GGA_level_(eV):    1.93540E+00
# Band_gap_at_the_HSE06_level_(eV):  3.25540E+00
# Atomization_energy_(eV/atom):     -5.27280E+00
# Volume_of_the_unit_cell_(A^3):     8.31096E+01
# Simulation_tool:                   VASP-5.X
# Pseudopotential:                   PAW
# Simulation_conditions:             ENCUT=400eV,k-spacing_relax=0.25/Angstrom,k-spacing_bandgap=0.20/Angstrom
# File_description:                  Structural information in CIF format
# Note:                              N/A 
# Created_by:                        Huan Tran (huan.tran@uconn.edu)
