# generated using pymatgen
data_H2C3S2O
_symmetry_space_group_name_H-M   'P 1'
_cell_length_a   4.37885610
_cell_length_b   4.41812540
_cell_length_c   11.34346710
_cell_angle_alpha   86.44467404
_cell_angle_beta   88.09184420
_cell_angle_gamma   85.72353449
_symmetry_Int_Tables_number   1
_chemical_formula_structural   H2C3S2O
_chemical_formula_sum   'H4 C6 S4 O2'
_cell_volume   218.331676085
_cell_formula_units_Z   2
loop_
 _symmetry_equiv_pos_site_id
 _symmetry_equiv_pos_as_xyz
  1  'x, y, z'
loop_
 _atom_site_type_symbol
 _atom_site_label
 _atom_site_symmetry_multiplicity
 _atom_site_fract_x
 _atom_site_fract_y
 _atom_site_fract_z
 _atom_site_occupancy
  C  C1  1  0.151037  0.655806  0.787278  1
  C  C2  1  0.651081  0.655837  0.287277  1
  C  C3  1  0.657144  0.159136  0.187208  1
  C  C4  1  0.157103  0.159104  0.687209  1
  C  C5  1  0.298078  0.338064  0.777628  1
  C  C6  1  0.798124  0.338096  0.277626  1
  H  H7  1  0.287406  0.213581  0.863475  1
  H  H8  1  0.787458  0.213611  0.363472  1
  H  H9  1  0.541055  0.349350  0.752145  1
  H  H10  1  0.041099  0.349386  0.252141  1
  O  O11  1  0.265005  0.844207  0.698498  1
  O  O12  1  0.765048  0.844239  0.198498  1
  S  S13  1  0.444980  0.281422  0.078559  1
  S  S14  1  0.944943  0.281394  0.578559  1
  S  S15  1  0.893418  0.756020  0.888502  1
  S  S16  1  0.393463  0.756047  0.388502  1
 
# Number_of_atoms:                    16
# Number_of_atom_types:                4
# Atom_types:                         C  H  O  S
# Atom_numbers:                        6     4     2     4
# Material_class:                    MC_pol
# Geometry_class:                    GC_cry
# Source:                            Mannodi-Kanakkithodi_etal:SciRep.inpress(2016)                                  
# Class:                             organic_polymer_crystal                                                         
# Label:                             CH2-CS-O-CS                                                                     
# Structure_prediction_method_used:  minima-hopping                                                                  
# Number_of_atoms:                    16
# Number_of_atom_types:                4
# Atom_types:                         C  H  O  S
# Dielectric_constant_electronic:    3.81128E+00
# Dielectric_constant_ionic:         6.32780E-01
# Dielectric_constant_total:         4.44407E+00
# Band_gap_at_the_GGA_level_(eV):    1.53070E+00
# Band_gap_at_the_HSE06_level_(eV):  2.77440E+00
# Atomization_energy_(eV/atom):     -5.44933E+00
# Volume_of_the_unit_cell_(A^3):     2.18332E+02
# Simulation_tool:                   VASP-5.X
# Pseudopotential:                   PAW
# Simulation_conditions:             ENCUT=400eV,k-spacing_relax=0.25/Angstrom,k-spacing_bandgap=0.20/Angstrom
# File_description:                  Structural information in CIF format
# Note:                              N/A 
# Created_by:                        Huan Tran (huan.tran@uconn.edu)
