# generated using pymatgen
data_H6C11SO2
_symmetry_space_group_name_H-M   'P 1'
_cell_length_a   3.59135812
_cell_length_b   5.74135488
_cell_length_c   10.24582008
_cell_angle_alpha   85.92697760
_cell_angle_beta   80.76382171
_cell_angle_gamma   74.55359449
_symmetry_Int_Tables_number   1
_chemical_formula_structural   H6C11SO2
_chemical_formula_sum   'H6 C11 S1 O2'
_cell_volume   200.901629693
_cell_formula_units_Z   1
loop_
 _symmetry_equiv_pos_site_id
 _symmetry_equiv_pos_as_xyz
  1  'x, y, z'
loop_
 _atom_site_type_symbol
 _atom_site_label
 _atom_site_symmetry_multiplicity
 _atom_site_fract_x
 _atom_site_fract_y
 _atom_site_fract_z
 _atom_site_occupancy
  C  C1  1  0.590552  0.348781  0.769566  1
  C  C2  1  0.725754  0.330435  0.632973  1
  C  C3  1  0.837206  0.529432  0.572653  1
  C  C4  1  0.599271  0.566479  0.814420  1
  C  C5  1  0.642584  0.463631  0.039606  1
  C  C6  1  0.211186  0.732039  0.224145  1
  C  C7  1  0.024198  0.745716  0.355189  1
  C  C8  1  0.424375  0.506766  0.173410  1
  C  C9  1  0.030241  0.536245  0.436314  1
  C  C10  1  0.436929  0.297244  0.254187  1
  C  C11  1  0.241062  0.311270  0.381632  1
  H  H12  1  0.597364  0.124588  0.213426  1
  H  H13  1  0.488660  0.212322  0.832390  1
  H  H14  1  0.735663  0.175261  0.578058  1
  H  H15  1  0.863235  0.920169  0.394181  1
  H  H16  1  0.195312  0.894072  0.161570  1
  H  H17  1  0.257980  0.147541  0.442256  1
  O  O18  1  0.913643  0.286984  0.009559  1
  O  O19  1  0.493743  0.642228  0.944406  1
  S  S20  1  0.764150  0.752508  0.689800  1
 
# Number_of_atoms:                    20
# Number_of_atom_types:                4
# Atom_types:                         C  H  O  S
# Atom_numbers:                       11     6     2     1
# Material_class:                    MC_pol
# Geometry_class:                    GC_cry
# Source:                            Mannodi-Kanakkithodi_etal:SciRep.inpress(2016)                                  
# Class:                             organic_polymer_crystal                                                         
# Label:                             CO-C6H4-C4H2S-O                                                                 
# Structure_prediction_method_used:  minima-hopping                                                                  
# Number_of_atoms:                    20
# Number_of_atom_types:                4
# Atom_types:                         C  H  O  S
# Dielectric_constant_electronic:    3.91269E+00
# Dielectric_constant_ionic:         9.26631E-01
# Dielectric_constant_total:         4.83932E+00
# Band_gap_at_the_GGA_level_(eV):    1.90160E+00
# Band_gap_at_the_HSE06_level_(eV):  2.75380E+00
# Atomization_energy_(eV/atom):     -6.34618E+00
# Volume_of_the_unit_cell_(A^3):     2.00902E+02
# Simulation_tool:                   VASP-5.X
# Pseudopotential:                   PAW
# Simulation_conditions:             ENCUT=400eV,k-spacing_relax=0.25/Angstrom,k-spacing_bandgap=0.20/Angstrom
# File_description:                  Structural information in CIF format
# Note:                              N/A 
# Created_by:                        Huan Tran (huan.tran@uconn.edu)
