# generated using pymatgen
data_H2C5SO3
_symmetry_space_group_name_H-M   'P 1'
_cell_length_a   3.49524941
_cell_length_b   5.38615222
_cell_length_c   6.30940663
_cell_angle_alpha   75.41427633
_cell_angle_beta   87.30192139
_cell_angle_gamma   83.75774350
_symmetry_Int_Tables_number   1
_chemical_formula_structural   H2C5SO3
_chemical_formula_sum   'H2 C5 S1 O3'
_cell_volume   114.246991754
_cell_formula_units_Z   1
loop_
 _symmetry_equiv_pos_site_id
 _symmetry_equiv_pos_as_xyz
  1  'x, y, z'
loop_
 _atom_site_type_symbol
 _atom_site_label
 _atom_site_symmetry_multiplicity
 _atom_site_fract_x
 _atom_site_fract_y
 _atom_site_fract_z
 _atom_site_occupancy
  C  C1  1  0.142919  0.712702  0.619312  1
  C  C2  1  0.140364  0.910720  0.418720  1
  C  C3  1  0.957829  0.138026  0.447816  1
  C  C4  1  0.962638  0.800654  0.787583  1
  C  C5  1  0.037888  0.443656  0.105200  1
  H  H6  1  0.273400  0.519355  0.634105  1
  H  H7  1  0.271774  0.882579  0.267394  1
  O  O8  1  0.868046  0.382668  0.307863  1
  O  O9  1  0.871730  0.683685  0.006434  1
  O  O10  1  0.285683  0.312638  0.030349  1
  S  S11  1  0.787099  0.122626  0.712216  1
 
# Number_of_atoms:                    11
# Number_of_atom_types:                4
# Atom_types:                         C  H  O  S
# Atom_numbers:                        5     2     3     1
# Material_class:                    MC_pol
# Geometry_class:                    GC_cry
# Source:                            Mannodi-Kanakkithodi_etal:SciRep.inpress(2016)                                  
# Class:                             organic_polymer_crystal                                                         
# Label:                             CO-O-C4H2S-O                                                                    
# Structure_prediction_method_used:  minima-hopping                                                                  
# Number_of_atoms:                    11
# Number_of_atom_types:                4
# Atom_types:                         C  H  O  S
# Dielectric_constant_electronic:    3.50489E+00
# Dielectric_constant_ionic:         7.65225E-01
# Dielectric_constant_total:         4.27011E+00
# Band_gap_at_the_GGA_level_(eV):    2.53770E+00
# Band_gap_at_the_HSE06_level_(eV):  3.67060E+00
# Atomization_energy_(eV/atom):     -6.25500E+00
# Volume_of_the_unit_cell_(A^3):     1.14247E+02
# Simulation_tool:                   VASP-5.X
# Pseudopotential:                   PAW
# Simulation_conditions:             ENCUT=400eV,k-spacing_relax=0.25/Angstrom,k-spacing_bandgap=0.20/Angstrom
# File_description:                  Structural information in CIF format
# Note:                              N/A 
# Created_by:                        Huan Tran (huan.tran@uconn.edu)
