# generated using pymatgen
data_CO2
_symmetry_space_group_name_H-M   'P 1'
_cell_length_a   4.23731118
_cell_length_b   4.46024998
_cell_length_c   6.35426595
_cell_angle_alpha   89.97396643
_cell_angle_beta   89.70210800
_cell_angle_gamma   89.98646867
_symmetry_Int_Tables_number   1
_chemical_formula_structural   CO2
_chemical_formula_sum   'C4 O8'
_cell_volume   120.090601588
_cell_formula_units_Z   4
loop_
 _symmetry_equiv_pos_site_id
 _symmetry_equiv_pos_as_xyz
  1  'x, y, z'
loop_
 _atom_site_type_symbol
 _atom_site_label
 _atom_site_symmetry_multiplicity
 _atom_site_fract_x
 _atom_site_fract_y
 _atom_site_fract_z
 _atom_site_occupancy
  C  C1  1  0.153130  0.340433  0.189532  1
  C  C2  1  0.653186  0.339854  0.689531  1
  C  C3  1  0.652459  0.839800  0.780272  1
  C  C4  1  0.152404  0.840377  0.280271  1
  O  O5  1  0.332366  0.590306  0.235120  1
  O  O6  1  0.832427  0.589855  0.734859  1
  O  O7  1  0.894967  0.340597  0.114548  1
  O  O8  1  0.395027  0.339885  0.614540  1
  O  O9  1  0.392949  0.839758  0.855028  1
  O  O10  1  0.892896  0.840469  0.355026  1
  O  O11  1  0.332386  0.090323  0.234889  1
  O  O12  1  0.832444  0.089873  0.735154  1
 
# Number_of_atoms:                    12
# Number_of_atom_types:                2
# Atom_types:                         C  O
# Atom_numbers:                        4     8
# Material_class:                    MC_pol
# Geometry_class:                    GC_cry
# Source:                            Mannodi-Kanakkithodi_etal:SciRep.inpress(2016)                                  
# Class:                             organic_polymer_crystal                                                         
# Label:                             CO-O-CO-O                                                                       
# Structure_prediction_method_used:  minima-hopping                                                                  
# Number_of_atoms:                    12
# Number_of_atom_types:                2
# Atom_types:                         C  O
# Dielectric_constant_electronic:    2.68517E+00
# Dielectric_constant_ionic:         1.95515E+00
# Dielectric_constant_total:         4.64031E+00
# Band_gap_at_the_GGA_level_(eV):    3.86590E+00
# Band_gap_at_the_HSE06_level_(eV):  5.92600E+00
# Atomization_energy_(eV/atom):     -6.76125E+00
# Volume_of_the_unit_cell_(A^3):     1.20091E+02
# Simulation_tool:                   VASP-5.X
# Pseudopotential:                   PAW
# Simulation_conditions:             ENCUT=400eV,k-spacing_relax=0.25/Angstrom,k-spacing_bandgap=0.20/Angstrom
# File_description:                  Structural information in CIF format
# Note:                              N/A 
# Created_by:                        Huan Tran (huan.tran@uconn.edu)
