# generated using pymatgen
data_H3C5SNO2
_symmetry_space_group_name_H-M   'P 1'
_cell_length_a   5.34503661
_cell_length_b   4.89229318
_cell_length_c   5.36218646
_cell_angle_alpha   76.78460862
_cell_angle_beta   83.66538429
_cell_angle_gamma   74.14412670
_symmetry_Int_Tables_number   1
_chemical_formula_structural   H3C5SNO2
_chemical_formula_sum   'H3 C5 S1 N1 O2'
_cell_volume   131.139652081
_cell_formula_units_Z   1
loop_
 _symmetry_equiv_pos_site_id
 _symmetry_equiv_pos_as_xyz
  1  'x, y, z'
loop_
 _atom_site_type_symbol
 _atom_site_label
 _atom_site_symmetry_multiplicity
 _atom_site_fract_x
 _atom_site_fract_y
 _atom_site_fract_z
 _atom_site_occupancy
  C  C1  1  0.962975  0.156757  0.656416  1
  C  C2  1  0.114252  0.280182  0.468973  1
  C  C3  1  0.006073  0.589200  0.368821  1
  C  C4  1  0.729350  0.357788  0.720755  1
  C  C5  1  0.549100  0.289397  0.946392  1
  H  H6  1  0.014314  0.969752  0.175284  1
  H  H7  1  0.019463  0.934834  0.762073  1
  H  H8  1  0.303959  0.178292  0.395208  1
  N  N9  1  0.122864  0.756947  0.214934  1
  O  O10  1  0.657484  0.221868  0.159843  1
  O  O11  1  0.318514  0.307161  0.903356  1
  S  S12  1  0.676019  0.696676  0.535353  1
 
# Number_of_atoms:                    12
# Number_of_atom_types:                5
# Atom_types:                         C  H  N  O  S
# Atom_numbers:                        5     3     1     2     1
# Material_class:                    MC_pol
# Geometry_class:                    GC_cry
# Source:                            Mannodi-Kanakkithodi_etal:SciRep.inpress(2016)                                  
# Class:                             organic_polymer_crystal                                                         
# Label:                             NH-C4H2S-CO-O                                                                   
# Structure_prediction_method_used:  minima-hopping                                                                  
# Number_of_atoms:                    12
# Number_of_atom_types:                5
# Atom_types:                         C  H  N  O  S
# Dielectric_constant_electronic:    4.38297E+00
# Dielectric_constant_ionic:         1.25390E+00
# Dielectric_constant_total:         5.63687E+00
# Band_gap_at_the_GGA_level_(eV):    1.04250E+00
# Band_gap_at_the_HSE06_level_(eV):  2.03240E+00
# Atomization_energy_(eV/atom):     -6.14061E+00
# Volume_of_the_unit_cell_(A^3):     1.31140E+02
# Simulation_tool:                   VASP-5.X
# Pseudopotential:                   PAW
# Simulation_conditions:             ENCUT=400eV,k-spacing_relax=0.25/Angstrom,k-spacing_bandgap=0.20/Angstrom
# File_description:                  Structural information in CIF format
# Note:                              N/A 
# Created_by:                        Huan Tran (huan.tran@uconn.edu)
