# generated using pymatgen
data_HCSNO2
_symmetry_space_group_name_H-M   'P 1'
_cell_length_a   4.51945367
_cell_length_b   5.41607637
_cell_length_c   6.36270403
_cell_angle_alpha   67.68330628
_cell_angle_beta   79.12885525
_cell_angle_gamma   76.99573962
_symmetry_Int_Tables_number   1
_chemical_formula_structural   HCSNO2
_chemical_formula_sum   'H2 C2 S2 N2 O4'
_cell_volume   139.461553343
_cell_formula_units_Z   2
loop_
 _symmetry_equiv_pos_site_id
 _symmetry_equiv_pos_as_xyz
  1  'x, y, z'
loop_
 _atom_site_type_symbol
 _atom_site_label
 _atom_site_symmetry_multiplicity
 _atom_site_fract_x
 _atom_site_fract_y
 _atom_site_fract_z
 _atom_site_occupancy
  C  C1  1  0.091960  0.721085  0.266508  1
  C  C2  1  0.091967  0.221108  0.766505  1
  H  H3  1  0.633846  0.562679  0.268249  1
  H  H4  1  0.633846  0.062689  0.768275  1
  N  N5  1  0.604015  0.771051  0.178209  1
  N  N6  1  0.604025  0.271056  0.678214  1
  O  O7  1  0.804803  0.367848  0.785691  1
  O  O8  1  0.804795  0.867825  0.285696  1
  O  O9  1  0.292780  0.871252  0.275927  1
  O  O10  1  0.292789  0.371280  0.775913  1
  S  S11  1  0.181235  0.431858  0.226707  1
  S  S12  1  0.181242  0.931876  0.726712  1
 
# Number_of_atoms:                    12
# Number_of_atom_types:                5
# Atom_types:                         C  H  N  O  S
# Atom_numbers:                        2     2     2     4     2
# Material_class:                    MC_pol
# Geometry_class:                    GC_cry
# Source:                            Mannodi-Kanakkithodi_etal:SciRep.inpress(2016)                                  
# Class:                             organic_polymer_crystal                                                         
# Label:                             NH-O-CS-O                                                                       
# Structure_prediction_method_used:  minima-hopping                                                                  
# Number_of_atoms:                    12
# Number_of_atom_types:                5
# Atom_types:                         C  H  N  O  S
# Dielectric_constant_electronic:    3.77156E+00
# Dielectric_constant_ionic:         1.01905E+00
# Dielectric_constant_total:         4.79061E+00
# Band_gap_at_the_GGA_level_(eV):    2.46820E+00
# Band_gap_at_the_HSE06_level_(eV):  3.71330E+00
# Atomization_energy_(eV/atom):     -5.20287E+00
# Volume_of_the_unit_cell_(A^3):     1.39462E+02
# Simulation_tool:                   VASP-5.X
# Pseudopotential:                   PAW
# Simulation_conditions:             ENCUT=400eV,k-spacing_relax=0.25/Angstrom,k-spacing_bandgap=0.20/Angstrom
# File_description:                  Structural information in CIF format
# Note:                              N/A 
# Created_by:                        Huan Tran (huan.tran@uconn.edu)
