# generated using pymatgen
data_SnH6(CO)4
_symmetry_space_group_name_H-M   'P 1'
_cell_length_a   4.87437102
_cell_length_b   5.54955295
_cell_length_c   5.68469234
_cell_angle_alpha   97.64872017
_cell_angle_beta   114.16708219
_cell_angle_gamma   99.29139000
_symmetry_Int_Tables_number   1
_chemical_formula_structural   SnH6(CO)4
_chemical_formula_sum   'Sn1 H6 C4 O4'
_cell_volume   135.025118011
_cell_formula_units_Z   1
loop_
 _symmetry_equiv_pos_site_id
 _symmetry_equiv_pos_as_xyz
  1  'x, y, z'
loop_
 _atom_site_type_symbol
 _atom_site_label
 _atom_site_symmetry_multiplicity
 _atom_site_fract_x
 _atom_site_fract_y
 _atom_site_fract_z
 _atom_site_occupancy
  C  C1  1  0.114846  0.492206  0.075049  1
  C  C2  1  0.704637  0.885142  0.875045  1
  C  C3  1  0.068850  0.152570  0.529891  1
  C  C4  1  0.750757  0.224803  0.420222  1
  H  H5  1  0.177672  0.313801  0.059807  1
  H  H6  1  0.874131  0.469347  0.036841  1
  H  H7  1  0.167650  0.598704  0.945967  1
  H  H8  1  0.651764  0.778652  0.004105  1
  H  H9  1  0.945365  0.908025  0.913331  1
  H  H10  1  0.641771  0.063542  0.890236  1
  O  O11  1  0.051471  0.919060  0.506527  1
  O  O12  1  0.314713  0.326902  0.635096  1
  O  O13  1  0.504911  0.050464  0.314986  1
  O  O14  1  0.768142  0.458326  0.443619  1
  Sn  Sn15  1  0.409791  0.688645  0.475047  1
 
# Number_of_atoms:                    15
# Number_of_atom_types:                4
# Atom_types:                         C  H  O Sn
# Atom_numbers:                        4     6     4     1
# Material_class:                    MC_pol
# Geometry_class:                    GC_cry
# Source:                            Baldwin_etal:Adv.Mater.27.346(2015).and.Macromolecules.48.2422(2015)            
# Class:                             organometallic_polymer_crystal                                                  
# Label:                             polyesters_inter                                                                
# Structure_prediction_method_used:  minima-hopping                                                                  
# Number_of_atoms:                    15
# Number_of_atom_types:                4
# Atom_types:                         C  H  O Sn
# Dielectric_constant_electronic:    3.32304E+00
# Dielectric_constant_ionic:         8.58468E+00
# Dielectric_constant_total:         1.19077E+01
# Band_gap_at_the_GGA_level_(eV):    2.76580E+00
# Band_gap_at_the_HSE06_level_(eV):  4.31470E+00
# Atomization_energy_(eV/atom):     -5.54944E+00
# Volume_of_the_unit_cell_(A^3):     1.35025E+02
# Simulation_tool:                   VASP-5.X
# Pseudopotential:                   PAW
# Simulation_conditions:             ENCUT=400eV,k-spacing_relax=0.25/Angstrom,k-spacing_bandgap=0.20/Angstrom
# File_description:                  Structural information in CIF format
# Note:                              N/A 
# Created_by:                        Huan Tran (huan.tran@uconn.edu)
