# generated using pymatgen
data_SnH4(CO2)3
_symmetry_space_group_name_H-M   'P 1'
_cell_length_a   4.36503949
_cell_length_b   5.02117394
_cell_length_c   6.38489874
_cell_angle_alpha   105.08106315
_cell_angle_beta   91.66829292
_cell_angle_gamma   96.33666687
_symmetry_Int_Tables_number   1
_chemical_formula_structural   SnH4(CO2)3
_chemical_formula_sum   'Sn1 H4 C3 O6'
_cell_volume   134.052433744
_cell_formula_units_Z   1
loop_
 _symmetry_equiv_pos_site_id
 _symmetry_equiv_pos_as_xyz
  1  'x, y, z'
loop_
 _atom_site_type_symbol
 _atom_site_label
 _atom_site_symmetry_multiplicity
 _atom_site_fract_x
 _atom_site_fract_y
 _atom_site_fract_z
 _atom_site_occupancy
  C  C1  1  0.810590  0.352333  0.258995  1
  C  C2  1  0.784089  0.771467  0.553946  1
  C  C3  1  0.600637  0.559707  0.372593  1
  H  H4  1  0.511926  0.671706  0.262817  1
  H  H5  1  0.411868  0.454935  0.439365  1
  H  H6  1  0.371619  0.599673  0.883691  1
  H  H7  1  0.158617  0.949977  0.180372  1
  O  O8  1  0.394748  0.427146  0.770019  1
  O  O9  1  0.302216  0.917536  0.061331  1
  O  O10  1  0.902343  0.395183  0.074358  1
  O  O11  1  0.888445  0.169689  0.341627  1
  O  O12  1  0.670663  0.932884  0.716349  1
  O  O13  1  0.080810  0.798379  0.551555  1
  Sn  Sn14  1  0.153838  0.121628  0.853909  1
 
# Number_of_atoms:                    14
# Number_of_atom_types:                4
# Atom_types:                         C  H  O Sn
# Atom_numbers:                        3     4     6     1
# Material_class:                    MC_pol
# Geometry_class:                    GC_cry
# Source:                            Huan_etal:SciDat(submitted)                                                     
# Class:                             organometallic_polymer_crystal                                                  
# Label:                             polyesters_intra                                                                
# Structure_prediction_method_used:  minima-hopping                                                                  
# Number_of_atoms:                    14
# Number_of_atom_types:                4
# Atom_types:                         C  H  O Sn
# Dielectric_constant_electronic:    3.09074E+00
# Dielectric_constant_ionic:         3.00521E+00
# Dielectric_constant_total:         6.09595E+00
# Band_gap_at_the_GGA_level_(eV):    2.94790E+00
# Band_gap_at_the_HSE06_level_(eV):  4.78100E+00
# Atomization_energy_(eV/atom):     -5.79842E+00
# Volume_of_the_unit_cell_(A^3):     1.34052E+02
# Simulation_tool:                   VASP-5.X
# Pseudopotential:                   PAW
# Simulation_conditions:             ENCUT=400eV,k-spacing_relax=0.25/Angstrom,k-spacing_bandgap=0.20/Angstrom
# File_description:                  Structural information in CIF format
# Note:                              N/A 
# Created_by:                        Huan Tran (huan.tran@uconn.edu)
