# generated using pymatgen
data_TiCO4
_symmetry_space_group_name_H-M   'P 1'
_cell_length_a   4.48389170
_cell_length_b   4.48389170
_cell_length_c   3.21668909
_cell_angle_alpha   88.62247696
_cell_angle_beta   88.62247696
_cell_angle_gamma   86.90092702
_symmetry_Int_Tables_number   1
_chemical_formula_structural   TiCO4
_chemical_formula_sum   'Ti1 C1 O4'
_cell_volume   64.5424533319
_cell_formula_units_Z   1
loop_
 _symmetry_equiv_pos_site_id
 _symmetry_equiv_pos_as_xyz
  1  'x, y, z'
loop_
 _atom_site_type_symbol
 _atom_site_label
 _atom_site_symmetry_multiplicity
 _atom_site_fract_x
 _atom_site_fract_y
 _atom_site_fract_z
 _atom_site_occupancy
  Ti  Ti1  1  0.528234  0.528234  0.653906  1
  O  O2  1  0.664286  0.664286  0.116612  1
  O  O3  1  0.250343  0.250343  0.879996  1
  O  O4  1  0.170338  0.811686  0.584720  1
  O  O5  1  0.811686  0.170338  0.584720  1
  C  C6  1  0.075114  0.075114  0.680046  1
 
# Number_of_atoms:                     6
# Number_of_atom_types:                3
# Atom_types:                        Ti  O  C
# Atom_numbers:                        1     4     1
# Material_class:                    MC_pol
# Geometry_class:                    GC_cry
# Source:                            Huan_etal:SciDat(submitted)                                                     
# Class:                             organometallic_polymer_crystal                                                  
# Label:                             Ti-based_polymer                                                                
# Structure_prediction_method_used:  minima-hopping                                                                  
# Number_of_atoms:                     6
# Number_of_atom_types:                3
# Atom_types:                        Ti  O  C
# Dielectric_constant_electronic:    4.63499E+00
# Dielectric_constant_ionic:         9.99361E+00
# Dielectric_constant_total:         1.46286E+01
# Band_gap_at_the_GGA_level_(eV):    2.50100E+00
# Band_gap_at_the_HSE06_level_(eV):  4.18370E+00
# Atomization_energy_(eV/atom):     -7.54366E+00
# Volume_of_the_unit_cell_(A^3):     6.45425E+01
# Simulation_tool:                   VASP-5.X
# Pseudopotential:                   PAW
# Simulation_conditions:             ENCUT=400eV,k-spacing_relax=0.25/Angstrom,k-spacing_bandgap=0.20/Angstrom
# File_description:                  Structural information in CIF format
# Note:                              N/A 
# Created_by:                        Huan Tran (huan.tran@uconn.edu)
