# generated using pymatgen
data_ZnH2C3O4
_symmetry_space_group_name_H-M   'P 1'
_cell_length_a   4.18288798
_cell_length_b   4.82749814
_cell_length_c   5.26091337
_cell_angle_alpha   78.99050971
_cell_angle_beta   66.58961368
_cell_angle_gamma   64.40497258
_symmetry_Int_Tables_number   1
_chemical_formula_structural   ZnH2C3O4
_chemical_formula_sum   'Zn1 H2 C3 O4'
_cell_volume   87.8976948459
_cell_formula_units_Z   1
loop_
 _symmetry_equiv_pos_site_id
 _symmetry_equiv_pos_as_xyz
  1  'x, y, z'
loop_
 _atom_site_type_symbol
 _atom_site_label
 _atom_site_symmetry_multiplicity
 _atom_site_fract_x
 _atom_site_fract_y
 _atom_site_fract_z
 _atom_site_occupancy
  C  C1  1  0.154298  0.183638  0.292168  1
  C  C2  1  0.301560  0.414974  0.107324  1
  C  C3  1  0.105812  0.647929  0.924658  1
  H  H4  1  0.337648  0.539165  0.240232  1
  H  H5  1  0.592334  0.288816  0.972355  1
  O  O6  1  0.403992  0.922160  0.328248  1
  O  O7  1  0.797133  0.259414  0.422292  1
  O  O8  1  0.129847  0.909742  0.889687  1
  O  O9  1  0.953587  0.572771  0.794590  1
  Zn  Zn10  1  0.634985  0.915826  0.608455  1
 
# Number_of_atoms:                    10
# Number_of_atom_types:                4
# Atom_types:                         C  H  O Zn
# Atom_numbers:                        3     2     4     1
# Material_class:                    MC_pol
# Geometry_class:                    GC_cry
# Source:                            Huan_etal:SciDat(submitted)                                                     
# Class:                             organometallic_polymer_crystal                                                  
# Label:                             Zn-based_polymer                                                                
# Structure_prediction_method_used:  minima-hopping                                                                  
# Dielectric_constant_electronic:    3.27925E+00
# Dielectric_constant_ionic:         2.89440E+00
# Dielectric_constant_total:         6.17365E+00
# Band_gap_at_the_GGA_level_eV:      3.93450E+00
# Band_gap_at_the_HSE06_level_eV:    5.94690E+00
# Atomization_energy_(eV/atom):     -5.88098E+00
# Volume_of_the_unit_cell_(A^3):     8.78977E+01
# Simulation_tool:                   VASP-5.X
# Pseudopotential:                   PAW
# Simulation_conditions:             ENCUT=400eV,k-spacing_relax=0.25/Angstrom,k-spacing_bandgap=0.20/Angstrom
# File_description:                  Structural information in CIF format
# Note:                              N/A 
# Created_by:                        Huan Tran (huan.tran@uconn.edu)
