# generated using pymatgen
data_ZnH4(CO)4
_symmetry_space_group_name_H-M   'P 1'
_cell_length_a   3.41165225
_cell_length_b   4.93692921
_cell_length_c   6.92342914
_cell_angle_alpha   76.37360042
_cell_angle_beta   77.63992956
_cell_angle_gamma   70.07603173
_symmetry_Int_Tables_number   1
_chemical_formula_structural   ZnH4(CO)4
_chemical_formula_sum   'Zn1 H4 C4 O4'
_cell_volume   105.398176852
_cell_formula_units_Z   1
loop_
 _symmetry_equiv_pos_site_id
 _symmetry_equiv_pos_as_xyz
  1  'x, y, z'
loop_
 _atom_site_type_symbol
 _atom_site_label
 _atom_site_symmetry_multiplicity
 _atom_site_fract_x
 _atom_site_fract_y
 _atom_site_fract_z
 _atom_site_occupancy
  C  C1  1  0.694491  0.205772  0.537135  1
  C  C2  1  0.749122  0.201273  0.749739  1
  C  C3  1  0.531241  0.490696  0.824370  1
  C  C4  1  0.286938  0.467581  0.035227  1
  H  H5  1  0.622537  0.032872  0.846876  1
  H  H6  1  0.081677  0.118386  0.763151  1
  H  H7  1  0.304818  0.633654  0.725287  1
  H  H8  1  0.746091  0.613559  0.814580  1
  O  O9  1  0.826035  0.951193  0.482306  1
  O  O10  1  0.507204  0.437700  0.428314  1
  O  O11  1  0.105893  0.716177  0.096159  1
  O  O12  1  0.240959  0.227737  0.133913  1
  Zn  Zn13  1  0.550671  0.837466  0.287633  1
 
# Number_of_atoms:                    13
# Number_of_atom_types:                4
# Atom_types:                         C  H  O Zn
# Atom_numbers:                        4     4     4     1
# Material_class:                    MC_pol
# Geometry_class:                    GC_cry
# Source:                            Huan_etal:SciDat(submitted)                                                     
# Class:                             organometallic_polymer_crystal                                                  
# Label:                             Zn-based_polymer                                                                
# Structure_prediction_method_used:  minima-hopping                                                                  
# Dielectric_constant_electronic:    3.18803E+00
# Dielectric_constant_ionic:         5.13208E+00
# Dielectric_constant_total:         8.32011E+00
# Band_gap_at_the_GGA_level_eV:      4.19460E+00
# Band_gap_at_the_HSE06_level_eV:    6.21940E+00
# Atomization_energy_(eV/atom):     -5.72613E+00
# Volume_of_the_unit_cell_(A^3):     1.05398E+02
# Simulation_tool:                   VASP-5.X
# Pseudopotential:                   PAW
# Simulation_conditions:             ENCUT=400eV,k-spacing_relax=0.25/Angstrom,k-spacing_bandgap=0.20/Angstrom
# File_description:                  Structural information in CIF format
# Note:                              N/A 
# Created_by:                        Huan Tran (huan.tran@uconn.edu)
