# generated using pymatgen
data_ZnH4(CO)4
_symmetry_space_group_name_H-M   'P 1'
_cell_length_a   4.69759153
_cell_length_b   4.81671335
_cell_length_c   6.41160110
_cell_angle_alpha   67.95196188
_cell_angle_beta   89.97085992
_cell_angle_gamma   60.87170643
_symmetry_Int_Tables_number   1
_chemical_formula_structural   ZnH4(CO)4
_chemical_formula_sum   'Zn1 H4 C4 O4'
_cell_volume   114.446666158
_cell_formula_units_Z   1
loop_
 _symmetry_equiv_pos_site_id
 _symmetry_equiv_pos_as_xyz
  1  'x, y, z'
loop_
 _atom_site_type_symbol
 _atom_site_label
 _atom_site_symmetry_multiplicity
 _atom_site_fract_x
 _atom_site_fract_y
 _atom_site_fract_z
 _atom_site_occupancy
  C  C1  1  0.347449  0.119368  0.538986  1
  C  C2  1  0.123598  0.051792  0.694602  1
  C  C3  1  0.314021  0.668273  0.876222  1
  C  C4  1  0.604121  0.600381  0.033188  1
  H  H5  1  0.032753  0.234318  0.773948  1
  H  H6  1  0.904470  0.111430  0.586141  1
  H  H7  1  0.406452  0.485604  0.796976  1
  H  H8  1  0.152723  0.609298  0.983352  1
  O  O9  1  0.293384  0.429209  0.419840  1
  O  O10  1  0.601711  0.847170  0.536174  1
  O  O11  1  0.861088  0.291193  0.150283  1
  O  O12  1  0.583812  0.872443  0.038507  1
  Zn  Zn13  1  0.846764  0.859212  0.285740  1
 
# Number_of_atoms:                    13
# Number_of_atom_types:                4
# Atom_types:                         C  H  O Zn
# Atom_numbers:                        4     4     4     1
# Material_class:                    MC_pol
# Geometry_class:                    GC_cry
# Source:                            Huan_etal:SciDat(submitted)                                                     
# Class:                             organometallic_polymer_crystal                                                  
# Label:                             Zn-based_polymer                                                                
# Structure_prediction_method_used:  minima-hopping                                                                  
# Dielectric_constant_electronic:    2.90573E+00
# Dielectric_constant_ionic:         2.03042E+00
# Dielectric_constant_total:         4.93615E+00
# Band_gap_at_the_GGA_level_eV:      4.94360E+00
# Band_gap_at_the_HSE06_level_eV:    6.89790E+00
# Atomization_energy_(eV/atom):     -5.77716E+00
# Volume_of_the_unit_cell_(A^3):     1.14447E+02
# Simulation_tool:                   VASP-5.X
# Pseudopotential:                   PAW
# Simulation_conditions:             ENCUT=400eV,k-spacing_relax=0.25/Angstrom,k-spacing_bandgap=0.20/Angstrom
# File_description:                  Structural information in CIF format
# Note:                              N/A 
# Created_by:                        Huan Tran (huan.tran@uconn.edu)
