# generated using pymatgen
data_ZnH8(C3O2)2
_symmetry_space_group_name_H-M   'P 1'
_cell_length_a   3.51662207
_cell_length_b   4.48542380
_cell_length_c   10.11899585
_cell_angle_alpha   84.14897272
_cell_angle_beta   82.13176469
_cell_angle_gamma   69.28832907
_symmetry_Int_Tables_number   1
_chemical_formula_structural   ZnH8(C3O2)2
_chemical_formula_sum   'Zn1 H8 C6 O4'
_cell_volume   147.64442106
_cell_formula_units_Z   1
loop_
 _symmetry_equiv_pos_site_id
 _symmetry_equiv_pos_as_xyz
  1  'x, y, z'
loop_
 _atom_site_type_symbol
 _atom_site_label
 _atom_site_symmetry_multiplicity
 _atom_site_fract_x
 _atom_site_fract_y
 _atom_site_fract_z
 _atom_site_occupancy
  C  C1  1  0.300898  0.712933  0.611980  1
  C  C2  1  0.486501  0.580812  0.476802  1
  C  C3  1  0.347606  0.810364  0.356388  1
  C  C4  1  0.530386  0.649429  0.224684  1
  C  C5  1  0.390891  0.879030  0.104331  1
  C  C6  1  0.574159  0.746590  0.969061  1
  H  H7  1  0.817696  0.502063  0.476294  1
  H  H8  1  0.425013  0.359621  0.473568  1
  H  H9  1  0.435104  0.020238  0.358900  1
  H  H10  1  0.863154  0.557687  0.219093  1
  H  H11  1  0.453666  0.099785  0.107245  1
  H  H12  1  0.059485  0.958631  0.105292  1
  H  H13  1  0.014867  0.902249  0.361878  1
  H  H14  1  0.443017  0.439471  0.222214  1
  O  O15  1  0.340655  0.518336  0.716080  1
  O  O16  1  0.113511  0.013188  0.616430  1
  O  O17  1  0.760928  0.446283  0.964568  1
  O  O18  1  0.532987  0.941062  0.864904  1
  Zn  Zn19  1  0.935909  0.229547  0.790533  1
 
# Number_of_atoms:                    19
# Number_of_atom_types:                4
# Atom_types:                         C  H  O Zn
# Atom_numbers:                        6     8     4     1
# Material_class:                    MC_pol
# Geometry_class:                    GC_cry
# Source:                            Huan_etal:SciDat(submitted)                                                     
# Class:                             organometallic_polymer_crystal                                                  
# Label:                             Zn-based_polymer                                                                
# Structure_prediction_method_used:  minima-hopping                                                                  
# Number_of_atoms:                    19
# Number_of_atom_types:                4
# Atom_types:                         C  H  O Zn
# Dielectric_constant_electronic:    3.01091E+00
# Dielectric_constant_ionic:         4.11991E+00
# Dielectric_constant_total:         7.13081E+00
# Band_gap_at_the_GGA_level_(eV):    3.85680E+00
# Band_gap_at_the_HSE06_level_(eV):  5.81480E+00
# Atomization_energy_(eV/atom):     -5.56595E+00
# Volume_of_the_unit_cell_(A^3):     1.47644E+02
# Simulation_tool:                   VASP-5.X
# Pseudopotential:                   PAW
# Simulation_conditions:             ENCUT=400eV,k-spacing_relax=0.25/Angstrom,k-spacing_bandgap=0.20/Angstrom
# File_description:                  Structural information in CIF format
# Note:                              N/A 
# Created_by:                        Huan Tran (huan.tran@uconn.edu)
