# generated using pymatgen
data_MgH2C3O4
_symmetry_space_group_name_H-M   'P 1'
_cell_length_a   4.53597961
_cell_length_b   6.13596962
_cell_length_c   6.20674087
_cell_angle_alpha   75.34910948
_cell_angle_beta   69.95643907
_cell_angle_gamma   73.13949658
_symmetry_Int_Tables_number   1
_chemical_formula_structural   MgH2C3O4
_chemical_formula_sum   'Mg2 H4 C6 O8'
_cell_volume   153.02968574
_cell_formula_units_Z   2
loop_
 _symmetry_equiv_pos_site_id
 _symmetry_equiv_pos_as_xyz
  1  'x, y, z'
loop_
 _atom_site_type_symbol
 _atom_site_label
 _atom_site_symmetry_multiplicity
 _atom_site_fract_x
 _atom_site_fract_y
 _atom_site_fract_z
 _atom_site_occupancy
  Mg  Mg1  1  0.976467  0.808157  0.428285  1
  Mg  Mg2  1  0.976447  0.808175  0.928264  1
  O  O3  1  0.804766  0.525862  0.039564  1
  O  O4  1  0.804814  0.525819  0.539646  1
  O  O5  1  0.148039  0.090482  0.312708  1
  O  O6  1  0.147995  0.090496  0.812668  1
  O  O7  1  0.677974  0.939408  0.221173  1
  O  O8  1  0.677935  0.939422  0.721158  1
  O  O9  1  0.274783  0.676765  0.137455  1
  O  O10  1  0.274839  0.676775  0.637449  1
  C  C11  1  0.523534  0.514565  0.159250  1
  C  C12  1  0.523553  0.514547  0.659286  1
  C  C13  1  0.429226  0.101700  0.286163  1
  C  C14  1  0.429172  0.101707  0.786150  1
  C  C15  1  0.476366  0.308142  0.346221  1
  C  C16  1  0.476283  0.308133  0.846247  1
  H  H17  1  0.258865  0.359496  0.480695  1
  H  H18  1  0.258742  0.359492  0.980694  1
  H  H19  1  0.693864  0.256823  0.397419  1
  H  H20  1  0.693735  0.256783  0.897506  1
 
# Number_of_atoms:                    20
# Number_of_atom_types:                4
# Atom_types:                        Mg  O  C  H
# Atom_numbers:                        2     8     6     4
# Material_class:                    MC_pol
# Geometry_class:                    GC_cry
# Source:                            Huan_etal:SciDat(submitted)                                                     
# Class:                             organometallic_polymer_crystal                                                  
# Label:                             Mg-based_polymer                                                                
# Structure_prediction_method_used:  minima-hopping                                                                  
# Number_of_atoms:                    20
# Number_of_atom_types:                4
# Atom_types:                        Mg  O  C  H
# Dielectric_constant_electronic:    3.05483E+00
# Dielectric_constant_ionic:         2.38776E+00
# Dielectric_constant_total:         5.44259E+00
# Band_gap_at_the_GGA_level_(eV):    4.05300E+00
# Band_gap_at_the_HSE06_level_(eV):  5.97270E+00
# Atomization_energy_(eV/atom):     -6.25437E+00
# Volume_of_the_unit_cell_(A^3):     1.53030E+02
# Simulation_tool:                   VASP-5.X
# Pseudopotential:                   PAW
# Simulation_conditions:             ENCUT=400eV,k-spacing_relax=0.25/Angstrom,k-spacing_bandgap=0.20/Angstrom
# File_description:                  Structural information in CIF format
# Note:                              N/A 
# Created_by:                        Huan Tran (huan.tran@uconn.edu)
