# generated using pymatgen
data_HfH6C5O4
_symmetry_space_group_name_H-M   'P 1'
_cell_length_a   4.06563409
_cell_length_b   4.60157401
_cell_length_c   8.38101249
_cell_angle_alpha   95.37435385
_cell_angle_beta   96.70257022
_cell_angle_gamma   115.91477734
_symmetry_Int_Tables_number   1
_chemical_formula_structural   HfH6C5O4
_chemical_formula_sum   'Hf1 H6 C5 O4'
_cell_volume   138.215257233
_cell_formula_units_Z   1
loop_
 _symmetry_equiv_pos_site_id
 _symmetry_equiv_pos_as_xyz
  1  'x, y, z'
loop_
 _atom_site_type_symbol
 _atom_site_label
 _atom_site_symmetry_multiplicity
 _atom_site_fract_x
 _atom_site_fract_y
 _atom_site_fract_z
 _atom_site_occupancy
  Hf  Hf1  1  0.026873  0.213347  0.289211  1
  O  O2  1  0.530354  0.237946  0.271783  1
  O  O3  1  0.038128  0.896868  0.461515  1
  O  O4  1  0.374188  0.993572  0.910924  1
  O  O5  1  0.629829  0.763622  0.140463  1
  C  C6  1  0.038787  0.628779  0.493208  1
  C  C7  1  0.860810  0.521609  0.640001  1
  C  C8  1  0.283864  0.578203  0.090315  1
  C  C9  1  0.064542  0.430923  0.780042  1
  C  C10  1  0.133661  0.665355  0.936838  1
  H  H11  1  0.452980  0.133864  0.017771  1
  H  H12  1  0.866772  0.652611  0.954547  1
  H  H13  1  0.602322  0.301287  0.589710  1
  H  H14  1  0.787487  0.710918  0.686923  1
  H  H15  1  0.325951  0.445180  0.755528  1
  H  H16  1  0.893603  0.182617  0.798490  1
 
# Number_of_atoms:                    16
# Number_of_atom_types:                4
# Atom_types:                        Hf  O  C  H
# Atom_numbers:                        1     4     5     6
# Material_class:                    MC_pol
# Geometry_class:                    GC_cry
# Source:                            Huan_etal:SciDat(submitted)                                                     
# Class:                             organometallic_polymer_crystal                                                  
# Label:                             Hf-based_polymer                                                                
# Structure_prediction_method_used:  minima-hopping                                                                  
# Number_of_atoms:                    16
# Number_of_atom_types:                4
# Atom_types:                        Hf  O  C  H
# Dielectric_constant_electronic:    4.21625E+00
# Dielectric_constant_ionic:         3.88561E+00
# Dielectric_constant_total:         8.10186E+00
# Band_gap_at_the_GGA_level_(eV):    1.12800E+00
# Band_gap_at_the_HSE06_level_(eV):  2.55090E+00
# Atomization_energy_(eV/atom):     -5.98521E+00
# Volume_of_the_unit_cell_(A^3):     1.38215E+02
# Simulation_tool:                   VASP-5.X
# Pseudopotential:                   PAW
# Simulation_conditions:             ENCUT=400eV,k-spacing_relax=0.25/Angstrom,k-spacing_bandgap=0.20/Angstrom
# File_description:                  Structural information in CIF format
# Note:                              N/A 
# Created_by:                        Huan Tran (huan.tran@uconn.edu)
