# generated using pymatgen
data_HfH6C5O4
_symmetry_space_group_name_H-M   'P 1'
_cell_length_a   4.60605189
_cell_length_b   4.04606952
_cell_length_c   8.32658765
_cell_angle_alpha   74.51480892
_cell_angle_beta   85.43742725
_cell_angle_gamma   57.73073698
_symmetry_Int_Tables_number   1
_chemical_formula_structural   HfH6C5O4
_chemical_formula_sum   'Hf1 H6 C5 O4'
_cell_volume   126.068771459
_cell_formula_units_Z   1
loop_
 _symmetry_equiv_pos_site_id
 _symmetry_equiv_pos_as_xyz
  1  'x, y, z'
loop_
 _atom_site_type_symbol
 _atom_site_label
 _atom_site_symmetry_multiplicity
 _atom_site_fract_x
 _atom_site_fract_y
 _atom_site_fract_z
 _atom_site_occupancy
  Hf  Hf1  1  0.147098  0.194552  0.331638  1
  O  O2  1  0.000989  0.759786  0.421252  1
  O  O3  1  0.622256  0.597554  0.367331  1
  O  O4  1  0.934815  0.223430  0.088035  1
  O  O5  1  0.394941  0.394906  0.144252  1
  C  C6  1  0.676688  0.787620  0.481444  1
  C  C7  1  0.780346  0.510150  0.659826  1
  C  C8  1  0.656471  0.249339  0.056561  1
  C  C9  1  0.510361  0.426665  0.741576  1
  C  C10  1  0.630019  0.106292  0.912406  1
  H  H11  1  0.443372  0.015255  0.940718  1
  H  H12  1  0.882523  0.842687  0.907993  1
  H  H13  1  0.854366  0.639496  0.734656  1
  H  H14  1  0.016254  0.218589  0.658745  1
  H  H15  1  0.429805  0.321429  0.657292  1
  H  H16  1  0.283015  0.706323  0.756945  1
 
# Number_of_atoms:                    16
# Number_of_atom_types:                4
# Atom_types:                        Hf  O  C  H
# Atom_numbers:                        1     4     5     6
# Material_class:                    MC_pol
# Geometry_class:                    GC_cry
# Source:                            Huan_etal:SciDat(submitted)                                                     
# Class:                             organometallic_polymer_crystal                                                  
# Label:                             Hf-based_polymer                                                                
# Structure_prediction_method_used:  minima-hopping                                                                  
# Number_of_atoms:                    16
# Number_of_atom_types:                4
# Atom_types:                        Hf  O  C  H
# Dielectric_constant_electronic:    3.81551E+00
# Dielectric_constant_ionic:         3.74431E+00
# Dielectric_constant_total:         7.55983E+00
# Band_gap_at_the_GGA_level_(eV):    1.93780E+00
# Band_gap_at_the_HSE06_level_(eV):  3.30020E+00
# Atomization_energy_(eV/atom):     -6.15050E+00
# Volume_of_the_unit_cell_(A^3):     1.26069E+02
# Simulation_tool:                   VASP-5.X
# Pseudopotential:                   PAW
# Simulation_conditions:             ENCUT=400eV,k-spacing_relax=0.25/Angstrom,k-spacing_bandgap=0.20/Angstrom
# File_description:                  Structural information in CIF format
# Note:                              N/A 
# Created_by:                        Huan Tran (huan.tran@uconn.edu)
