# generated using pymatgen
data_CdH2C3O4
_symmetry_space_group_name_H-M   'P 1'
_cell_length_a   3.64369377
_cell_length_b   4.16495985
_cell_length_c   6.40782704
_cell_angle_alpha   84.11538487
_cell_angle_beta   87.83134314
_cell_angle_gamma   82.05647877
_symmetry_Int_Tables_number   1
_chemical_formula_structural   CdH2C3O4
_chemical_formula_sum   'Cd1 H2 C3 O4'
_cell_volume   95.7758840336
_cell_formula_units_Z   1
loop_
 _symmetry_equiv_pos_site_id
 _symmetry_equiv_pos_as_xyz
  1  'x, y, z'
loop_
 _atom_site_type_symbol
 _atom_site_label
 _atom_site_symmetry_multiplicity
 _atom_site_fract_x
 _atom_site_fract_y
 _atom_site_fract_z
 _atom_site_occupancy
  C  C1  1  0.135004  0.211807  0.814766  1
  C  C2  1  0.879437  0.139425  0.203756  1
  C  C3  1  0.963196  0.352096  0.008770  1
  H  H4  1  0.157713  0.507936  0.055606  1
  H  H5  1  0.717496  0.522417  0.967066  1
  O  O6  1  0.058647  0.857873  0.253035  1
  O  O7  1  0.609144  0.251416  0.321894  1
  O  O8  1  0.362750  0.950548  0.822901  1
  O  O9  1  0.060664  0.390568  0.640099  1
  Cd  Cd10  1  0.531794  0.728385  0.505625  1
 
# Number_of_atoms:                    10
# Number_of_atom_types:                4
# Atom_types:                         C  H  O Cd
# Atom_numbers:                        3     2     4     1
# Material_class:                    MC_pol
# Geometry_class:                    GC_cry
# Source:                            Huan_etal:SciDat(submitted)                                                     
# Class:                             organometallic_polymer_crystal                                                  
# Label:                             Cd-based_polymer                                                                
# Structure_prediction_method_used:  minima-hopping                                                                  
# Number_of_atoms:                    10
# Number_of_atom_types:                4
# Atom_types:                         C  H  O Cd
# Dielectric_constant_electronic:    3.34732E+00
# Dielectric_constant_ionic:         3.57179E+00
# Dielectric_constant_total:         6.91911E+00
# Band_gap_at_the_GGA_level_(eV):    3.63900E+00
# Band_gap_at_the_HSE06_level_(eV):  5.44390E+00
# Atomization_energy_(eV/atom):     -5.88521E+00
# Volume_of_the_unit_cell_(A^3):     9.57759E+01
# Simulation_tool:                   VASP-5.X
# Pseudopotential:                   PAW
# Simulation_conditions:             ENCUT=400eV,k-spacing_relax=0.25/Angstrom,k-spacing_bandgap=0.20/Angstrom
# File_description:                  Structural information in CIF format
# Note:                              N/A 
# Created_by:                        Huan Tran (huan.tran@uconn.edu)
