# generated using pymatgen
data_CdH2C3O4
_symmetry_space_group_name_H-M   'P 1'
_cell_length_a   3.78052397
_cell_length_b   4.01254917
_cell_length_c   6.37387898
_cell_angle_alpha   94.30012798
_cell_angle_beta   93.64508297
_cell_angle_gamma   91.54359787
_symmetry_Int_Tables_number   1
_chemical_formula_structural   CdH2C3O4
_chemical_formula_sum   'Cd1 H2 C3 O4'
_cell_volume   96.1727263999
_cell_formula_units_Z   1
loop_
 _symmetry_equiv_pos_site_id
 _symmetry_equiv_pos_as_xyz
  1  'x, y, z'
loop_
 _atom_site_type_symbol
 _atom_site_label
 _atom_site_symmetry_multiplicity
 _atom_site_fract_x
 _atom_site_fract_y
 _atom_site_fract_z
 _atom_site_occupancy
  C  C1  1  0.978376  0.132436  0.805157  1
  C  C2  1  0.016863  0.180664  0.208226  1
  C  C3  1  0.131756  0.315700  0.006921  1
  H  H4  1  0.418461  0.320135  0.011098  1
  H  H5  1  0.048232  0.572054  0.011840  1
  O  O6  1  0.784887  0.941870  0.202664  1
  O  O7  1  0.151995  0.329506  0.381925  1
  O  O8  1  0.702427  0.243676  0.710159  1
  O  O9  1  0.107511  0.856213  0.735867  1
  Cd  Cd10  1  0.589189  0.716208  0.506465  1
 
# Number_of_atoms:                    10
# Number_of_atom_types:                4
# Atom_types:                         C  H  O Cd
# Atom_numbers:                        3     2     4     1
# Material_class:                    MC_pol
# Geometry_class:                    GC_cry
# Source:                            Huan_etal:SciDat(submitted)                                                     
# Class:                             organometallic_polymer_crystal                                                  
# Label:                             Cd-based_polymer                                                                
# Structure_prediction_method_used:  minima-hopping                                                                  
# Number_of_atoms:                    10
# Number_of_atom_types:                4
# Atom_types:                         C  H  O Cd
# Dielectric_constant_electronic:    3.30584E+00
# Dielectric_constant_ionic:         1.10770E+01
# Dielectric_constant_total:         1.43829E+01
# Band_gap_at_the_GGA_level_(eV):    3.26950E+00
# Band_gap_at_the_HSE06_level_(eV):  5.03410E+00
# Atomization_energy_(eV/atom):     -5.86322E+00
# Volume_of_the_unit_cell_(A^3):     9.61727E+01
# Simulation_tool:                   VASP-5.X
# Pseudopotential:                   PAW
# Simulation_conditions:             ENCUT=400eV,k-spacing_relax=0.25/Angstrom,k-spacing_bandgap=0.20/Angstrom
# File_description:                  Structural information in CIF format
# Note:                              N/A 
# Created_by:                        Huan Tran (huan.tran@uconn.edu)
