# generated using pymatgen
data_CdH2C3O4
_symmetry_space_group_name_H-M   'P 1'
_cell_length_a   4.23440885
_cell_length_b   4.98085059
_cell_length_c   5.36354072
_cell_angle_alpha   79.06675982
_cell_angle_beta   66.79772102
_cell_angle_gamma   65.12836152
_symmetry_Int_Tables_number   1
_chemical_formula_structural   CdH2C3O4
_chemical_formula_sum   'Cd1 H2 C3 O4'
_cell_volume   94.2906510206
_cell_formula_units_Z   1
loop_
 _symmetry_equiv_pos_site_id
 _symmetry_equiv_pos_as_xyz
  1  'x, y, z'
loop_
 _atom_site_type_symbol
 _atom_site_label
 _atom_site_symmetry_multiplicity
 _atom_site_fract_x
 _atom_site_fract_y
 _atom_site_fract_z
 _atom_site_occupancy
  C  C1  1  0.119711  0.815393  0.819761  1
  C  C2  1  0.739166  0.214418  0.184666  1
  C  C3  1  0.744224  0.017440  0.999769  1
  H  H4  1  0.586150  0.154477  0.871511  1
  H  H5  1  0.585364  0.884790  0.124111  1
  O  O6  1  0.968513  0.109366  0.311522  1
  O  O7  1  0.493453  0.479493  0.218084  1
  O  O8  1  0.166712  0.549948  0.790800  1
  O  O9  1  0.374166  0.917775  0.692477  1
  Cd  Cd10  1  0.895447  0.516852  0.500190  1
 
# Number_of_atoms:                    10
# Number_of_atom_types:                4
# Atom_types:                         C  H  O Cd
# Atom_numbers:                        3     2     4     1
# Material_class:                    MC_pol
# Geometry_class:                    GC_cry
# Source:                            Huan_etal:SciDat(submitted)                                                     
# Class:                             organometallic_polymer_crystal                                                  
# Label:                             Cd-based_polymer                                                                
# Structure_prediction_method_used:  minima-hopping                                                                  
# Number_of_atoms:                    10
# Number_of_atom_types:                4
# Atom_types:                         C  H  O Cd
# Dielectric_constant_electronic:    3.43061E+00
# Dielectric_constant_ionic:         4.47823E+00
# Dielectric_constant_total:         7.90884E+00
# Band_gap_at_the_GGA_level_(eV):    3.05150E+00
# Band_gap_at_the_HSE06_level_(eV):  4.87950E+00
# Atomization_energy_(eV/atom):     -5.84750E+00
# Volume_of_the_unit_cell_(A^3):     9.42907E+01
# Simulation_tool:                   VASP-5.X
# Pseudopotential:                   PAW
# Simulation_conditions:             ENCUT=400eV,k-spacing_relax=0.25/Angstrom,k-spacing_bandgap=0.20/Angstrom
# File_description:                  Structural information in CIF format
# Note:                              N/A 
# Created_by:                        Huan Tran (huan.tran@uconn.edu)
