# generated using pymatgen
data_CdH2C3O4
_symmetry_space_group_name_H-M   'P 1'
_cell_length_a   3.58236155
_cell_length_b   4.29412401
_cell_length_c   6.56970925
_cell_angle_alpha   93.78198049
_cell_angle_beta   91.35169197
_cell_angle_gamma   102.80118776
_symmetry_Int_Tables_number   1
_chemical_formula_structural   CdH2C3O4
_chemical_formula_sum   'Cd1 H2 C3 O4'
_cell_volume   98.2601482289
_cell_formula_units_Z   1
loop_
 _symmetry_equiv_pos_site_id
 _symmetry_equiv_pos_as_xyz
  1  'x, y, z'
loop_
 _atom_site_type_symbol
 _atom_site_label
 _atom_site_symmetry_multiplicity
 _atom_site_fract_x
 _atom_site_fract_y
 _atom_site_fract_z
 _atom_site_occupancy
  C  C1  1  0.006286  0.025873  0.191286  1
  C  C2  1  0.927620  0.998669  0.800460  1
  C  C3  1  0.996321  0.834109  0.988471  1
  H  H4  1  0.262506  0.755068  0.976070  1
  H  H5  1  0.775516  0.616065  0.995664  1
  O  O6  1  0.120539  0.279464  0.772490  1
  O  O7  1  0.659753  0.856197  0.669299  1
  O  O8  1  0.845799  0.264449  0.202389  1
  O  O9  1  0.164901  0.929588  0.343777  1
  Cd  Cd10  1  0.619165  0.357977  0.515378  1
 
# Number_of_atoms:                    10
# Number_of_atom_types:                4
# Atom_types:                         C  H  O Cd
# Atom_numbers:                        3     2     4     1
# Material_class:                    MC_pol
# Geometry_class:                    GC_cry
# Source:                            Huan_etal:SciDat(submitted)                                                     
# Class:                             organometallic_polymer_crystal                                                  
# Label:                             Cd-based_polymer                                                                
# Structure_prediction_method_used:  minima-hopping                                                                  
# Number_of_atoms:                    10
# Number_of_atom_types:                4
# Atom_types:                         C  H  O Cd
# Dielectric_constant_electronic:    3.29446E+00
# Dielectric_constant_ionic:         4.90756E+00
# Dielectric_constant_total:         8.20202E+00
# Band_gap_at_the_GGA_level_(eV):    3.02910E+00
# Band_gap_at_the_HSE06_level_(eV):  4.79820E+00
# Atomization_energy_(eV/atom):     -5.84598E+00
# Volume_of_the_unit_cell_(A^3):     9.82601E+01
# Simulation_tool:                   VASP-5.X
# Pseudopotential:                   PAW
# Simulation_conditions:             ENCUT=400eV,k-spacing_relax=0.25/Angstrom,k-spacing_bandgap=0.20/Angstrom
# File_description:                  Structural information in CIF format
# Note:                              N/A 
# Created_by:                        Huan Tran (huan.tran@uconn.edu)
