# generated using pymatgen
data_CdH2C3O4
_symmetry_space_group_name_H-M   'P 1'
_cell_length_a   3.58500281
_cell_length_b   4.19000644
_cell_length_c   6.48201877
_cell_angle_alpha   98.33641174
_cell_angle_beta   89.68644619
_cell_angle_gamma   99.80461051
_symmetry_Int_Tables_number   1
_chemical_formula_structural   CdH2C3O4
_chemical_formula_sum   'Cd1 H2 C3 O4'
_cell_volume   94.9132547792
_cell_formula_units_Z   1
loop_
 _symmetry_equiv_pos_site_id
 _symmetry_equiv_pos_as_xyz
  1  'x, y, z'
loop_
 _atom_site_type_symbol
 _atom_site_label
 _atom_site_symmetry_multiplicity
 _atom_site_fract_x
 _atom_site_fract_y
 _atom_site_fract_z
 _atom_site_occupancy
  C  C1  1  0.256981  0.990304  0.811569  1
  C  C2  1  0.988071  0.036433  0.170600  1
  C  C3  1  0.054713  0.866582  0.980726  1
  H  H4  1  0.902087  0.620346  0.948725  1
  H  H5  1  0.507172  0.729676  0.192802  1
  O  O6  1  0.137098  0.320678  0.266982  1
  O  O7  1  0.700541  0.876573  0.286787  1
  O  O8  1  0.467216  0.274585  0.828492  1
  O  O9  1  0.215007  0.805493  0.627127  1
  Cd  Cd10  1  0.663217  0.438773  0.522688  1
 
# Number_of_atoms:                    10
# Number_of_atom_types:                4
# Atom_types:                         C  H  O Cd
# Atom_numbers:                        3     2     4     1
# Material_class:                    MC_pol
# Geometry_class:                    GC_cry
# Source:                            Huan_etal:SciDat(submitted)                                                     
# Class:                             organometallic_polymer_crystal                                                  
# Label:                             Cd-based_polymer                                                                
# Structure_prediction_method_used:  minima-hopping                                                                  
# Number_of_atoms:                    10
# Number_of_atom_types:                4
# Atom_types:                         C  H  O Cd
# Dielectric_constant_electronic:    3.81555E+00
# Dielectric_constant_ionic:         5.14754E+00
# Dielectric_constant_total:         8.96309E+00
# Band_gap_at_the_GGA_level_(eV):    2.48640E+00
# Band_gap_at_the_HSE06_level_(eV):  3.80000E+00
# Atomization_energy_(eV/atom):     -5.81139E+00
# Volume_of_the_unit_cell_(A^3):     9.49133E+01
# Simulation_tool:                   VASP-5.X
# Pseudopotential:                   PAW
# Simulation_conditions:             ENCUT=400eV,k-spacing_relax=0.25/Angstrom,k-spacing_bandgap=0.20/Angstrom
# File_description:                  Structural information in CIF format
# Note:                              N/A 
# Created_by:                        Huan Tran (huan.tran@uconn.edu)
