# generated using pymatgen
data_CdH4(CO)4
_symmetry_space_group_name_H-M   'P 1'
_cell_length_a   3.58417310
_cell_length_b   4.42662202
_cell_length_c   7.57796261
_cell_angle_alpha   93.01337929
_cell_angle_beta   92.18336869
_cell_angle_gamma   103.01683684
_symmetry_Int_Tables_number   1
_chemical_formula_structural   CdH4(CO)4
_chemical_formula_sum   'Cd1 H4 C4 O4'
_cell_volume   116.824679319
_cell_formula_units_Z   1
loop_
 _symmetry_equiv_pos_site_id
 _symmetry_equiv_pos_as_xyz
  1  'x, y, z'
loop_
 _atom_site_type_symbol
 _atom_site_label
 _atom_site_symmetry_multiplicity
 _atom_site_fract_x
 _atom_site_fract_y
 _atom_site_fract_z
 _atom_site_occupancy
  C  C1  1  0.034564  0.247132  0.525924  1
  C  C2  1  0.869824  0.134834  0.697626  1
  C  C3  1  0.855139  0.394472  0.835789  1
  C  C4  1  0.689625  0.282328  0.007387  1
  H  H5  1  0.590444  0.979113  0.668681  1
  H  H6  1  0.052716  0.989287  0.748923  1
  H  H7  1  0.672775  0.540295  0.784348  1
  H  H8  1  0.134671  0.549896  0.864910  1
  O  O9  1  0.955899  0.056938  0.386689  1
  O  O10  1  0.257157  0.514457  0.524972  1
  O  O11  1  0.467116  0.014973  0.008317  1
  O  O12  1  0.767595  0.472741  0.146543  1
  Cd  Cd13  1  0.361699  0.764784  0.266632  1
 
# Number_of_atoms:                    13
# Number_of_atom_types:                4
# Atom_types:                         C  H  O Cd
# Atom_numbers:                        4     4     4     1
# Material_class:                    MC_pol
# Geometry_class:                    GC_cry
# Source:                            Huan_etal:SciDat(submitted)                                                     
# Class:                             organometallic_polymer_crystal                                                  
# Label:                             Cd-based_polymer                                                                
# Structure_prediction_method_used:  minima-hopping                                                                  
# Number_of_atoms:                    13
# Number_of_atom_types:                4
# Atom_types:                         C  H  O Cd
# Dielectric_constant_electronic:    3.12433E+00
# Dielectric_constant_ionic:         3.12453E+00
# Dielectric_constant_total:         6.24886E+00
# Band_gap_at_the_GGA_level_(eV):    3.92450E+00
# Band_gap_at_the_HSE06_level_(eV):  5.83050E+00
# Atomization_energy_(eV/atom):     -5.73942E+00
# Volume_of_the_unit_cell_(A^3):     1.16825E+02
# Simulation_tool:                   VASP-5.X
# Pseudopotential:                   PAW
# Simulation_conditions:             ENCUT=400eV,k-spacing_relax=0.25/Angstrom,k-spacing_bandgap=0.20/Angstrom
# File_description:                  Structural information in CIF format
# Note:                              N/A 
# Created_by:                        Huan Tran (huan.tran@uconn.edu)
