# generated using pymatgen
data_CdH4(CO)4
_symmetry_space_group_name_H-M   'P 1'
_cell_length_a   3.58596691
_cell_length_b   4.63586325
_cell_length_c   7.35375598
_cell_angle_alpha   106.89480402
_cell_angle_beta   93.41292458
_cell_angle_gamma   95.86525266
_symmetry_Int_Tables_number   1
_chemical_formula_structural   CdH4(CO)4
_chemical_formula_sum   'Cd1 H4 C4 O4'
_cell_volume   115.848160044
_cell_formula_units_Z   1
loop_
 _symmetry_equiv_pos_site_id
 _symmetry_equiv_pos_as_xyz
  1  'x, y, z'
loop_
 _atom_site_type_symbol
 _atom_site_label
 _atom_site_symmetry_multiplicity
 _atom_site_fract_x
 _atom_site_fract_y
 _atom_site_fract_z
 _atom_site_occupancy
  C  C1  1  0.562093  0.171023  0.455431  1
  C  C2  1  0.672844  0.105023  0.252932  1
  C  C3  1  0.827900  0.383254  0.199964  1
  C  C4  1  0.939215  0.316954  0.997561  1
  H  H5  1  0.880226  0.946062  0.237190  1
  H  H6  1  0.428097  0.979609  0.157493  1
  H  H7  1  0.072255  0.509035  0.295574  1
  H  H8  1  0.620211  0.541908  0.215294  1
  O  O9  1  0.343799  0.965491  0.490839  1
  O  O10  1  0.678664  0.433087  0.578635  1
  O  O11  1  0.822792  0.054758  0.874469  1
  O  O12  1  0.157788  0.522289  0.962101  1
  Cd  Cd13  1  0.250904  0.744038  0.726522  1
 
# Number_of_atoms:                    13
# Number_of_atom_types:                4
# Atom_types:                         C  H  O Cd
# Atom_numbers:                        4     4     4     1
# Material_class:                    MC_pol
# Geometry_class:                    GC_cry
# Source:                            Huan_etal:SciDat(submitted)                                                     
# Class:                             organometallic_polymer_crystal                                                  
# Label:                             Cd-based_polymer                                                                
# Structure_prediction_method_used:  minima-hopping                                                                  
# Number_of_atoms:                    13
# Number_of_atom_types:                4
# Atom_types:                         C  H  O Cd
# Dielectric_constant_electronic:    3.15576E+00
# Dielectric_constant_ionic:         3.87826E+00
# Dielectric_constant_total:         7.03402E+00
# Band_gap_at_the_GGA_level_(eV):    3.71740E+00
# Band_gap_at_the_HSE06_level_(eV):  5.62190E+00
# Atomization_energy_(eV/atom):     -5.71764E+00
# Volume_of_the_unit_cell_(A^3):     1.15848E+02
# Simulation_tool:                   VASP-5.X
# Pseudopotential:                   PAW
# Simulation_conditions:             ENCUT=400eV,k-spacing_relax=0.25/Angstrom,k-spacing_bandgap=0.20/Angstrom
# File_description:                  Structural information in CIF format
# Note:                              N/A 
# Created_by:                        Huan Tran (huan.tran@uconn.edu)
