# generated using pymatgen
data_CdH6C5O4
_symmetry_space_group_name_H-M   'P 1'
_cell_length_a   3.71860502
_cell_length_b   4.19369576
_cell_length_c   9.16827126
_cell_angle_alpha   84.51361339
_cell_angle_beta   85.45722457
_cell_angle_gamma   75.40897130
_symmetry_Int_Tables_number   1
_chemical_formula_structural   CdH6C5O4
_chemical_formula_sum   'Cd1 H6 C5 O4'
_cell_volume   137.505743922
_cell_formula_units_Z   1
loop_
 _symmetry_equiv_pos_site_id
 _symmetry_equiv_pos_as_xyz
  1  'x, y, z'
loop_
 _atom_site_type_symbol
 _atom_site_label
 _atom_site_symmetry_multiplicity
 _atom_site_fract_x
 _atom_site_fract_y
 _atom_site_fract_z
 _atom_site_occupancy
  C  C1  1  0.011686  0.924067  0.459079  1
  C  C2  1  0.818396  0.054474  0.600623  1
  C  C3  1  0.925940  0.829715  0.739528  1
  C  C4  1  0.755361  0.003020  0.877390  1
  C  C5  1  0.834804  0.786446  0.018474  1
  H  H6  1  0.880815  0.293929  0.604959  1
  H  H7  1  0.518526  0.113735  0.588910  1
  H  H8  1  0.227828  0.747388  0.743610  1
  H  H9  1  0.868410  0.215926  0.887975  1
  H  H10  1  0.826816  0.607159  0.737321  1
  H  H11  1  0.455706  0.101500  0.872963  1
  O  O12  1  0.949427  0.117926  0.339667  1
  O  O13  1  0.237730  0.641921  0.460239  1
  O  O14  1  0.113096  0.535352  0.018664  1
  O  O15  1  0.620709  0.859924  0.134420  1
  Cd  Cd16  1  0.394558  0.396722  0.237947  1
 
# Number_of_atoms:                    16
# Number_of_atom_types:                4
# Atom_types:                         C  H  O Cd
# Atom_numbers:                        5     6     4     1
# Material_class:                    MC_pol
# Geometry_class:                    GC_cry
# Source:                            Huan_etal:SciDat(submitted)                                                     
# Class:                             organometallic_polymer_crystal                                                  
# Label:                             Cd-based_polymer                                                                
# Structure_prediction_method_used:  minima-hopping                                                                  
# Number_of_atoms:                    16
# Number_of_atom_types:                4
# Atom_types:                         C  H  O Cd
# Dielectric_constant_electronic:    3.06550E+00
# Dielectric_constant_ionic:         3.03268E+00
# Dielectric_constant_total:         6.09818E+00
# Band_gap_at_the_GGA_level_(eV):    3.96060E+00
# Band_gap_at_the_HSE06_level_(eV):  5.84210E+00
# Atomization_energy_(eV/atom):     -5.61908E+00
# Volume_of_the_unit_cell_(A^3):     1.37506E+02
# Simulation_tool:                   VASP-5.X
# Pseudopotential:                   PAW
# Simulation_conditions:             ENCUT=400eV,k-spacing_relax=0.25/Angstrom,k-spacing_bandgap=0.20/Angstrom
# File_description:                  Structural information in CIF format
# Note:                              N/A 
# Created_by:                        Huan Tran (huan.tran@uconn.edu)
