# generated using pymatgen
data_CdH6C5O4
_symmetry_space_group_name_H-M   'P 1'
_cell_length_a   4.67975334
_cell_length_b   5.38965808
_cell_length_c   5.92376824
_cell_angle_alpha   102.59601894
_cell_angle_beta   92.15545093
_cell_angle_gamma   103.81973854
_symmetry_Int_Tables_number   1
_chemical_formula_structural   CdH6C5O4
_chemical_formula_sum   'Cd1 H6 C5 O4'
_cell_volume   140.958080985
_cell_formula_units_Z   1
loop_
 _symmetry_equiv_pos_site_id
 _symmetry_equiv_pos_as_xyz
  1  'x, y, z'
loop_
 _atom_site_type_symbol
 _atom_site_label
 _atom_site_symmetry_multiplicity
 _atom_site_fract_x
 _atom_site_fract_y
 _atom_site_fract_z
 _atom_site_occupancy
  C  C1  1  0.885183  0.925193  0.534085  1
  C  C2  1  0.766176  0.114581  0.426036  1
  C  C3  1  0.989389  0.264033  0.285699  1
  C  C4  1  0.843375  0.259929  0.046945  1
  C  C5  1  0.747838  0.502524  0.023371  1
  H  H6  1  0.562681  0.001608  0.318815  1
  H  H7  1  0.696415  0.251445  0.564984  1
  H  H8  1  0.173567  0.174121  0.258509  1
  H  H9  1  0.999382  0.228929  0.919100  1
  H  H10  1  0.084463  0.468681  0.377656  1
  H  H11  1  0.648588  0.093531  0.001975  1
  O  O12  1  0.713883  0.714093  0.564369  1
  O  O13  1  0.164865  0.990730  0.597060  1
  O  O14  1  0.939847  0.718784  0.037244  1
  O  O15  1  0.468761  0.472498  0.979738  1
  Cd  Cd16  1  0.308900  0.723113  0.783849  1
 
# Number_of_atoms:                    16
# Number_of_atom_types:                4
# Atom_types:                         C  H  O Cd
# Atom_numbers:                        5     6     4     1
# Material_class:                    MC_pol
# Geometry_class:                    GC_cry
# Source:                            Huan_etal:SciDat(submitted)                                                     
# Class:                             organometallic_polymer_crystal                                                  
# Label:                             Cd-based_polymer                                                                
# Structure_prediction_method_used:  minima-hopping                                                                  
# Number_of_atoms:                    16
# Number_of_atom_types:                4
# Atom_types:                         C  H  O Cd
# Dielectric_constant_electronic:    3.13892E+00
# Dielectric_constant_ionic:         2.68714E+00
# Dielectric_constant_total:         5.82607E+00
# Band_gap_at_the_GGA_level_(eV):    3.19440E+00
# Band_gap_at_the_HSE06_level_(eV):  4.99500E+00
# Atomization_energy_(eV/atom):     -5.56625E+00
# Volume_of_the_unit_cell_(A^3):     1.40958E+02
# Simulation_tool:                   VASP-5.X
# Pseudopotential:                   PAW
# Simulation_conditions:             ENCUT=400eV,k-spacing_relax=0.25/Angstrom,k-spacing_bandgap=0.20/Angstrom
# File_description:                  Structural information in CIF format
# Note:                              N/A 
# Created_by:                        Huan Tran (huan.tran@uconn.edu)
