# generated using pymatgen
data_CdH8(C3O2)2
_symmetry_space_group_name_H-M   'P 1'
_cell_length_a   3.56893030
_cell_length_b   4.13066958
_cell_length_c   10.43142327
_cell_angle_alpha   87.30040040
_cell_angle_beta   83.19593443
_cell_angle_gamma   88.78688639
_symmetry_Int_Tables_number   1
_chemical_formula_structural   CdH8(C3O2)2
_chemical_formula_sum   'Cd1 H8 C6 O4'
_cell_volume   152.50941978
_cell_formula_units_Z   1
loop_
 _symmetry_equiv_pos_site_id
 _symmetry_equiv_pos_as_xyz
  1  'x, y, z'
loop_
 _atom_site_type_symbol
 _atom_site_label
 _atom_site_symmetry_multiplicity
 _atom_site_fract_x
 _atom_site_fract_y
 _atom_site_fract_z
 _atom_site_occupancy
  C  C1  1  0.987866  0.254015  0.398645  1
  C  C2  1  0.077069  0.374000  0.526443  1
  C  C3  1  0.126254  0.126174  0.636808  1
  C  C4  1  0.177950  0.298657  0.760423  1
  C  C5  1  0.236637  0.064779  0.874678  1
  C  C6  1  0.080476  0.173264  0.007783  1
  H  H7  1  0.321684  0.529282  0.506840  1
  H  H8  1  0.841985  0.539043  0.556113  1
  H  H9  1  0.367061  0.967949  0.608561  1
  H  H10  1  0.412590  0.466701  0.741692  1
  H  H11  1  0.529748  0.988276  0.876170  1
  H  H12  1  0.085613  0.840186  0.867496  1
  H  H13  1  0.879814  0.971639  0.655600  1
  H  H14  1  0.926868  0.447381  0.786814  1
  O  O15  1  0.768678  0.018414  0.394734  1
  O  O16  1  0.115598  0.428568  0.295766  1
  O  O17  1  0.163865  0.984850  0.104697  1
  O  O18  1  0.845559  0.406178  0.020197  1
  Cd  Cd19  1  0.636300  0.722481  0.206057  1
 
# Number_of_atoms:                    19
# Number_of_atom_types:                4
# Atom_types:                         C  H  O Cd
# Atom_numbers:                        6     8     4     1
# Material_class:                    MC_pol
# Geometry_class:                    GC_cry
# Source:                            Huan_etal:SciDat(submitted)                                                     
# Class:                             organometallic_polymer_crystal                                                  
# Label:                             Cd-based_polymer                                                                
# Structure_prediction_method_used:  minima-hopping                                                                  
# Number_of_atoms:                    19
# Number_of_atom_types:                4
# Atom_types:                         C  H  O Cd
# Dielectric_constant_electronic:    3.10175E+00
# Dielectric_constant_ionic:         3.21651E+00
# Dielectric_constant_total:         6.31826E+00
# Band_gap_at_the_GGA_level_(eV):    3.72190E+00
# Band_gap_at_the_HSE06_level_(eV):  5.53270E+00
# Atomization_energy_(eV/atom):     -5.52013E+00
# Volume_of_the_unit_cell_(A^3):     1.52509E+02
# Simulation_tool:                   VASP-5.X
# Pseudopotential:                   PAW
# Simulation_conditions:             ENCUT=400eV,k-spacing_relax=0.25/Angstrom,k-spacing_bandgap=0.20/Angstrom
# File_description:                  Structural information in CIF format
# Note:                              N/A 
# Created_by:                        Huan Tran (huan.tran@uconn.edu)
