# generated using pymatgen
data_H8Pb(C3O2)2
_symmetry_space_group_name_H-M   'P 1'
_cell_length_a   4.21427635
_cell_length_b   7.59774534
_cell_length_c   10.90031154
_cell_angle_alpha   76.70721418
_cell_angle_beta   84.72836230
_cell_angle_gamma   79.50005694
_symmetry_Int_Tables_number   1
_chemical_formula_structural   H8Pb(C3O2)2
_chemical_formula_sum   'H16 Pb2 C12 O8'
_cell_volume   333.522648047
_cell_formula_units_Z   2
loop_
 _symmetry_equiv_pos_site_id
 _symmetry_equiv_pos_as_xyz
  1  'x, y, z'
loop_
 _atom_site_type_symbol
 _atom_site_label
 _atom_site_symmetry_multiplicity
 _atom_site_fract_x
 _atom_site_fract_y
 _atom_site_fract_z
 _atom_site_occupancy
  C  C1  1  0.709481  0.698100  0.219483  1
  C  C2  1  0.716072  0.195823  0.220194  1
  C  C3  1  0.504350  0.707517  0.339854  1
  C  C4  1  0.507136  0.209400  0.339100  1
  C  C5  1  0.701052  0.717610  0.449352  1
  C  C6  1  0.701908  0.217814  0.449555  1
  C  C7  1  0.678543  0.750683  0.676193  1
  C  C8  1  0.675733  0.248802  0.676971  1
  C  C9  1  0.481857  0.740589  0.566691  1
  C  C10  1  0.480982  0.240371  0.566514  1
  C  C11  1  0.473372  0.760088  0.796552  1
  C  C12  1  0.466755  0.262353  0.795876  1
  H  H13  1  0.312025  0.825548  0.320838  1
  H  H14  1  0.318629  0.329302  0.318528  1
  H  H15  1  0.389316  0.585377  0.365032  1
  H  H16  1  0.387099  0.089072  0.364003  1
  H  H17  1  0.881906  0.593242  0.471921  1
  H  H18  1  0.881364  0.092828  0.472052  1
  H  H19  1  0.834305  0.832385  0.419814  1
  H  H20  1  0.836804  0.332054  0.421037  1
  H  H21  1  0.348601  0.625815  0.596229  1
  H  H22  1  0.346098  0.126127  0.595037  1
  H  H23  1  0.301004  0.864958  0.544124  1
  H  H24  1  0.301517  0.365353  0.544016  1
  H  H25  1  0.793582  0.872820  0.651026  1
  H  H26  1  0.795736  0.369142  0.652073  1
  H  H27  1  0.870860  0.632645  0.695212  1
  H  H28  1  0.864263  0.128913  0.697547  1
  O  O29  1  0.969953  0.582649  0.221984  1
  O  O30  1  0.972850  0.077405  0.224976  1
  O  O31  1  0.618341  0.811697  0.115302  1
  O  O32  1  0.631307  0.307984  0.114655  1
  O  O33  1  0.212983  0.875605  0.794061  1
  O  O34  1  0.209974  0.380766  0.791087  1
  O  O35  1  0.564397  0.646402  0.900717  1
  O  O36  1  0.551499  0.150173  0.901404  1
  Pb  Pb37  1  0.097939  0.478533  0.007609  1
  Pb  Pb38  1  0.084907  0.979585  0.008460  1
 
# Number_of_atoms:                    38
# Number_of_atom_types:                4
# Atom_types:                         C  H  O Pb
# Atom_numbers:                       12    16     8     2
# Material_class:                    MC_pol
# Geometry_class:                    GC_cry
# Source:                            Huan_etal:SciDat(submitted)                                                     
# Class:                             organometallic_polymer_crystal                                                  
# Label:                             Pb-based_polymer                                                                
# Structure_prediction_method_used:  minima-hopping                                                                  
# Number_of_atoms:                    38
# Number_of_atom_types:                4
# Atom_types:                         C  H  O Pb
# Dielectric_constant_electronic:    3.36155E+00
# Dielectric_constant_ionic:         6.46076E+00
# Dielectric_constant_total:         9.82230E+00
# Band_gap_at_the_GGA_level_(eV):    2.66730E+00
# Band_gap_at_the_HSE06_level_(eV):  3.76290E+00
# Atomization_energy_(eV/atom):     -5.71482E+00
# Volume_of_the_unit_cell_(A^3):     3.33523E+02
# Simulation_tool:                   VASP-5.X
# Pseudopotential:                   PAW
# Simulation_conditions:             ENCUT=400eV,k-spacing_relax=0.25/Angstrom,k-spacing_bandgap=0.20/Angstrom
# File_description:                  Structural information in CIF format
# Note:                              N/A 
# Created_by:                        Huan Tran (huan.tran@uconn.edu)
